*SIMULATION OVERVIEW FILE

*DSSAT Cropping System Model Ver. 4.8.0.027 -release  MAR 20, 2023 17:26:54

*RUN   1        : Sim1                      WHAPS048 TEST2023    1
 MODEL          : WHAPS048 - Wheat
 EXPERIMENT     : TEST2023 SN TEST-KBAD
 DATA PATH      : C:\DSSAT48\Seasonal\
 TREATMENT  1   : Sim1                      WHAPS048


 CROP           : Wheat            CULTIVAR : MARIS FUNDIN     ECOTYPE :DFAULT
 STARTING DATE  : OCT 15 1975
 PLANTING DATE  : OCT 15 1975       LANTS/m2 :  1000.0    ROW SPACING :  10.cm
 WEATHER        : SUWO7501
 SOIL           : CORD860001     TEXTURE : SALO  - DEFAULT - DEEP SANDY LOAM
 SOIL INITIAL C : DEPTH:195cm EXTR. H2O:283.5mm  NO3:  0.0kg/ha  NH4:  0.0kg/ha
 WATER BALANCE  : IRRIGATE ON REPORTED DAP
 IRRIGATION     :        0 mm IN     0 APPLICATIONS
 NITROGEN BAL.  : SOIL-N & N-UPTAKE SIMULATION; NO N-FIXATION
 N-FERTILIZER   :      380 kg/ha IN     2 APPLICATIONS
 RESIDUE/MANURE : INITIAL :     0 kg/ha ;       0 kg/ha IN     0 APPLICATIONS
 ENVIRONM. OPT. : DAYL=    0.00  SRAD=    0.00  TMAX=    0.00  TMIN=    0.00
                  RAIN=    0.00  CO2 =    0.00  DEW =    0.00  WIND=    0.00
 SIMULATION OPT : WATER   :Y  NITROGEN:Y  N-FIX:N  PHOSPH :N  PESTS  :N
                  PHOTO   :C  ET      :R  INFIL:S  HYDROL :R  SOM    :G
                  CO2     :D  NSWIT   :1  EVAP :R  SOIL   :2  STEMP  :D
 MANAGEMENT OPT : PLANTING:R  IRRIG   :D  FERT :D  RESIDUE:R  HARVEST:M
                  WEATHER :M  TILLAGE :Y

*SUMMARY OF SOIL AND GENETIC INPUT PARAMETERS

   SOIL LOWER UPPER   SAT  EXTR  INIT   ROOT   BULK     pH    NO3    NH4    ORG
  DEPTH LIMIT LIMIT    SW    SW    SW   DIST   DENS                          C
   cm   cm3/cm3    cm3/cm3    cm3/cm3         g/cm3         ugN/g  ugN/g     %
-------------------------------------------------------------------------------
  0-  5 0.070 0.270 0.390 0.200 0.270   1.00   1.61   7.10   0.00   0.00   0.70
  5- 15 0.070 0.270 0.390 0.200 0.270   1.00   1.61   7.10   0.00   0.00   0.70
 15- 30 0.070 0.250 0.350 0.180 0.250   0.60   1.61   7.10   0.00   0.00   0.58
 30- 45 0.070 0.250 0.350 0.180 0.250   0.60   1.61   7.10   0.00   0.00   0.58
 45- 60 0.070 0.220 0.320 0.150 0.220   0.30   1.61   7.10   0.00   0.00   0.58
 60- 75 0.070 0.220 0.320 0.150 0.220   0.30   1.61   7.10   0.00   0.00   0.58
 75-105 0.070 0.200 0.300 0.130 0.200   0.22   1.61   7.10   0.00   0.00   0.43
105-135 0.070 0.195 0.285 0.125 0.195   0.22   1.62   7.10   0.00   0.00   0.26
135-165 0.070 0.180 0.280 0.110 0.180   0.22   1.62   7.10   0.00   0.00   0.12
165-195 0.070 0.220 0.310 0.150 0.220   0.22   1.62   7.10   0.00   0.00   0.04

TOT-195  13.6  42.0  61.2  28.3  42.0  <--cm   -  kg/ha-->    0.0    0.0 114114
SOIL ALBEDO    : 0.21      EVAPORATION LIMIT : 6.00         MIN. FACTOR  : 1.00
RUNOFF CURVE # :60.00      DRAINAGE RATE     : 0.60         FERT. FACTOR : 1.00

 Wheat            CULTIVAR: IB1015-MARIS FUNDIN       ECOTYPE: DFAULT


*SIMULATED CROP AND SOIL STATUS AT MAIN DEVELOPMENT STAGES

 RUN NO.     1     Sim1                    

        CROP GROWTH     BIOMASS         LEAF   CROP N     STRESS      STRESS                                           
   DATE  AGE STAGE        kg/ha    LAI   NUM  kg/ha  %   H2O  Nitr Phos1 Phos2  RSTG                                   
 ------  --- ----------   -----  -----  ----  ---  ---  ----  ----  ----  ----  ----                                   
 15 OCT    0 Fallow           0   0.00   0.0    0  0.0  0.00  0.00  0.00  0.00     8
 15 OCT    0 Sowing           0   0.00   0.0    0  0.0  0.00  0.00  0.00  0.00     8
 17 OCT    2 Germinate        0   0.00   0.0    0  0.0  0.00  0.00  0.00  0.00     9
 23 OCT    8 Emergence       47   0.04   0.0    2  4.9  0.00  0.00  0.00  0.00     1
 28 APR  196 End Juveni    5931   7.65   0.0  206  3.5  0.41  0.00  0.00  0.00     2
 20 MAY  218 End Veg       9633   8.77   0.0  280  2.9  0.66  0.00  0.00  0.00     3
 31 MAY  229 End Ear Gr   11595   8.15   0.0  298  2.6  0.77  0.00  0.00  0.00     4
  8 JUN  237 Beg Gr Fil   12887   7.19   0.0  298  2.3  0.73  0.00  0.00  0.00     5
 30 JUN  259 Maturity     15223   0.20   0.0  298  2.0  0.74  0.05  0.00  0.00     6
  1 JUL  260 Maturity     15223   0.20   0.0  298  2.0  0.49  1.00  0.00  0.00     7
  1 JUL  260 Harvest      15223   0.20   0.0  298  2.0  0.00  0.00  0.00  0.00     7


*MAIN GROWTH AND DEVELOPMENT VARIABLES

@     VARIABLE                                         SIMULATED     MEASURED
      --------                                         ---------     --------
      Anthesis day (dap)                                     229          -99
      Physiological maturity day (dap)                       260          -99
      Yield at harvest maturity (kg [dm]/ha)                3656          -99
      Number at maturity (no/m2)                            9230          -99
      Unit wt at maturity (g [dm]/unit)                     39.6          -99
      Number at maturity (no/unit)                           9.2          -99
      Tops weight at maturity (kg [dm]/ha)                 15223          -99
      By-product produced (stalk) at maturity (kg[dm]/ha       0          -99
      Leaf area index, maximum                              9.25          -99
      Harvest index at maturity                            0.240          -99
      Grain N at maturity (kg/ha)                             69          -99
      Tops N at maturity (kg/ha)                             298          -99
      Stem N at maturity (kg/ha)                               0          -99
      Grain N at maturity (%)                                1.9          -99
      Tops weight at anthesis (kg [dm]/ha)                     2          -99
      Tops N at anthesis (kg/ha)                              88          -99
      Leaf number per stem at maturity                      0.00          -99
      Emergence day (dap)                                      8          -99


*ENVIRONMENTAL AND STRESS FACTORS

 |-----Development Phase------|--------------------------------------Environment--------------------------------------|-----------------Stress-----------------|
                              |---------------Average--------------|-----Cumulative-----|--------Count of days--------|          (0=Min, 1=Max Stress)         |
                         Time  Temp  Temp  Temp Solar Photop                Evapo    Pot TMIN TMIN TMAX TMAX TMAX RAIN|----Water----|---Nitrogen--|-Phosphorus-|
                         Span   Max   Min  Mean   Rad  [day]    CO2   Rain  Trans     ET   <    <    >    >    >    >   Photo         Photo         Photo
                         days    ?    ?    ? MJ/m2     hr    ppm     mm     mm     mm  0?  2? 30? 32? 34?  0mm  synth Growth  synth Growth  synth Growth
----------------------------------------------------------------------------------------------------------------------------------------------------------------
 Emergence-End Juvenile   188   8.5  -2.5   3.0   6.4  10.71  380.0  248.7  134.4  159.2  114  133    0    0    0   50  0.319  0.411  0.001  0.002  0.000  0.000
 End Juvenil-Floral Init   22  19.2   7.3  13.2  11.8  13.82  380.0   61.2   56.1   48.1    0    0    0    0    0    8  0.572  0.675  0.000  0.000  0.000  0.000
 Floral Init-End Lf Grow   11  26.1  11.7  18.9  12.7  14.27  380.0    0.0   49.6   29.4    0    0    2    0    0    0  0.628  0.752  0.000  0.000  0.000  0.000
 End Lf Grth-Beg Grn Fil    8  25.6  14.2  19.9  11.1  14.44  380.0   19.8   30.4   19.0    0    0    0    0    0    2  0.598  0.733  0.000  0.000  0.000  0.000
 Grain Filling Phase       22  26.3  16.7  21.5  10.5  14.55  380.0   28.5   49.5   51.0    0    0    2    1    0    7  0.610  0.740  0.000  0.000  0.000  0.000
   
 Planting to Harvest      260  12.7   1.4   7.0   7.6  11.58  380.0  358.2  333.2  320.0  114  133    4    1    0   67  0.377  0.473  0.004  0.005  0.000  0.000
----------------------------------------------------------------------------------------------------------------------------------------------------------------


*Resource Productivity
 Growing season length: 260 days 

 Precipitation during growing season       358.2 mm[rain]
   Dry Matter Productivity                  4.25 kg[DM]/m3[rain]          =   42.5 kg[DM]/ha per mm[rain]
   Yield Productivity                       1.02 kg[grain yield]/m3[rain] =   10.2 kg[yield]/ha per mm[rain]

 Evapotranspiration during growing season  333.2 mm[ET]
   Dry Matter Productivity                  4.57 kg[DM]/m3[ET]            =   45.7 kg[DM]/ha per mm[ET]
   Yield Productivity                       1.10 kg[grain yield]/m3[ET]   =   11.0 kg[yield]/ha per mm[ET]

 Transpiration during growing season       255.2 mm[EP]
   Dry Matter Productivity                  5.97 kg[DM]/m3[EP]            =   59.7 kg[DM]/ha per mm[EP]
   Yield Productivity                       1.43 kg[grain yield]/m3[EP]   =   14.3 kg[yield]/ha per mm[EP]

 N applied during growing season            380. kg[N applied]/ha
   Dry Matter Productivity                  40.1 kg[DM]/kg[N applied]
   Yield Productivity                        9.6 kg[yield]/kg[N applied]

 N uptake during growing season              368 kg[N uptake]/ha
   Dry Matter Productivity                  41.4 kg[DM]/kg[N uptake]
   Yield Productivity                        9.9 kg[yield]/kg[N uptake]

--------------------------------------------------------------------------------------------------------------

                     Wheat YIELD :     3656 kg/ha    [Dry weight] 

**************************************************************************************************************

*DSSAT Cropping System Model Ver. 4.8.0.027 -release  MAR 20, 2023 17:26:54

*RUN   2        : Sim1                      WHAPS048 TEST2023    1
 MODEL          : WHAPS048 - Wheat
 EXPERIMENT     : TEST2023 SN TEST-KBAD
 DATA PATH      : C:\DSSAT48\Seasonal\
 TREATMENT  1   : Sim1                      WHAPS048


 CROP           : Wheat            CULTIVAR : MARIS FUNDIN     ECOTYPE :DFAULT
 STARTING DATE  : OCT 14 1976
 PLANTING DATE  : OCT 14 1976       LANTS/m2 :  1000.0    ROW SPACING :  10.cm
 WEATHER        : SUWO7601
 SOIL           : CORD860001     TEXTURE : SALO  - DEFAULT - DEEP SANDY LOAM
 SOIL INITIAL C : DEPTH:195cm EXTR. H2O:283.5mm  NO3:  0.0kg/ha  NH4:  0.0kg/ha
 WATER BALANCE  : IRRIGATE ON REPORTED DAP
 IRRIGATION     :        0 mm IN     0 APPLICATIONS
 NITROGEN BAL.  : SOIL-N & N-UPTAKE SIMULATION; NO N-FIXATION
 N-FERTILIZER   :      380 kg/ha IN     2 APPLICATIONS
 RESIDUE/MANURE : INITIAL :     0 kg/ha ;       0 kg/ha IN     0 APPLICATIONS
 ENVIRONM. OPT. : DAYL=    0.00  SRAD=    0.00  TMAX=    0.00  TMIN=    0.00
                  RAIN=    0.00  CO2 =    0.00  DEW =    0.00  WIND=    0.00
 SIMULATION OPT : WATER   :Y  NITROGEN:Y  N-FIX:N  PHOSPH :N  PESTS  :N
                  PHOTO   :C  ET      :R  INFIL:S  HYDROL :R  SOM    :G
                  CO2     :D  NSWIT   :1  EVAP :R  SOIL   :2  STEMP  :D
 MANAGEMENT OPT : PLANTING:R  IRRIG   :D  FERT :D  RESIDUE:R  HARVEST:M
                  WEATHER :M  TILLAGE :Y

*SUMMARY OF SOIL AND GENETIC INPUT PARAMETERS

   SOIL LOWER UPPER   SAT  EXTR  INIT   ROOT   BULK     pH    NO3    NH4    ORG
  DEPTH LIMIT LIMIT    SW    SW    SW   DIST   DENS                          C
   cm   cm3/cm3    cm3/cm3    cm3/cm3         g/cm3         ugN/g  ugN/g     %
-------------------------------------------------------------------------------
  0-  5 0.070 0.270 0.390 0.200 0.270   1.00   1.61   7.10   0.00   0.00   0.70
  5- 15 0.070 0.270 0.390 0.200 0.270   1.00   1.61   7.10   0.00   0.00   0.70
 15- 30 0.070 0.250 0.350 0.180 0.250   0.60   1.61   7.10   0.00   0.00   0.58
 30- 45 0.070 0.250 0.350 0.180 0.250   0.60   1.61   7.10   0.00   0.00   0.58
 45- 60 0.070 0.220 0.320 0.150 0.220   0.30   1.61   7.10   0.00   0.00   0.58
 60- 75 0.070 0.220 0.320 0.150 0.220   0.30   1.61   7.10   0.00   0.00   0.58
 75-105 0.070 0.200 0.300 0.130 0.200   0.22   1.61   7.10   0.00   0.00   0.43
105-135 0.070 0.195 0.285 0.125 0.195   0.22   1.62   7.10   0.00   0.00   0.26
135-165 0.070 0.180 0.280 0.110 0.180   0.22   1.62   7.10   0.00   0.00   0.12
165-195 0.070 0.220 0.310 0.150 0.220   0.22   1.62   7.10   0.00   0.00   0.04

TOT-195  13.6  42.0  61.2  28.3  42.0  <--cm   -  kg/ha-->    0.0    0.0 114114
SOIL ALBEDO    : 0.21      EVAPORATION LIMIT : 6.00         MIN. FACTOR  : 1.00
RUNOFF CURVE # :60.00      DRAINAGE RATE     : 0.60         FERT. FACTOR : 1.00

 Wheat            CULTIVAR: IB1015-MARIS FUNDIN       ECOTYPE: DFAULT


*SIMULATED CROP AND SOIL STATUS AT MAIN DEVELOPMENT STAGES

 RUN NO.     2     Sim1                    

        CROP GROWTH     BIOMASS         LEAF   CROP N     STRESS      STRESS                                           
   DATE  AGE STAGE        kg/ha    LAI   NUM  kg/ha  %   H2O  Nitr Phos1 Phos2  RSTG                                   
 ------  --- ----------   -----  -----  ----  ---  ---  ----  ----  ----  ----  ----                                   
 14 OCT    0 Fallow           0   0.00   0.0    0  0.0  0.00  0.00  0.00  0.00     8
 14 OCT    0 Sowing           0   0.00   0.0    0  0.0  0.00  0.00  0.00  0.00     8
 16 OCT    2 Germinate        0   0.00   0.0    0  0.0  0.00  0.00  0.00  0.00     9
 22 OCT    8 Emergence       47   0.05   0.0    2  4.9  0.17  0.00  0.00  0.00     1
 29 APR  197 End Juveni    7572   8.46   0.0  240  3.2  0.53  0.00  0.00  0.00     2
 19 MAY  217 End Veg      11924   9.68   0.0  306  2.6  0.72  0.00  0.00  0.00     3
 30 MAY  228 End Ear Gr   14154   9.00   0.0  311  2.2  0.72  0.00  0.00  0.00     4
  7 JUN  236 Beg Gr Fil   15662   7.93   0.0  314  2.0  0.67  0.00  0.00  0.00     5
 28 JUN  257 Maturity     18787   0.00   0.0  315  1.7  0.83  0.05  0.00  0.00     6
 29 JUN  258 Maturity     18787   0.00   0.0  315  1.7  0.80  1.00  0.00  0.00     7
 29 JUN  258 Harvest      18787   0.00   0.0  315  1.7  0.00  0.00  0.00  0.00     7


*MAIN GROWTH AND DEVELOPMENT VARIABLES

@     VARIABLE                                         SIMULATED     MEASURED
      --------                                         ---------     --------
      Anthesis day (dap)                                     228          -99
      Physiological maturity day (dap)                       258          -99
      Yield at harvest maturity (kg [dm]/ha)                4686          -99
      Number at maturity (no/m2)                           10863          -99
      Unit wt at maturity (g [dm]/unit)                     43.1          -99
      Number at maturity (no/unit)                          10.9          -99
      Tops weight at maturity (kg [dm]/ha)                 18787          -99
      By-product produced (stalk) at maturity (kg[dm]/ha       0          -99
      Leaf area index, maximum                              9.76          -99
      Harvest index at maturity                            0.249          -99
      Grain N at maturity (kg/ha)                             81          -99
      Tops N at maturity (kg/ha)                             315          -99
      Stem N at maturity (kg/ha)                               0          -99
      Grain N at maturity (%)                                1.7          -99
      Tops weight at anthesis (kg [dm]/ha)                     2          -99
      Tops N at anthesis (kg/ha)                              88          -99
      Leaf number per stem at maturity                      0.00          -99
      Emergence day (dap)                                      8          -99


*ENVIRONMENTAL AND STRESS FACTORS

 |-----Development Phase------|--------------------------------------Environment--------------------------------------|-----------------Stress-----------------|
                              |---------------Average--------------|-----Cumulative-----|--------Count of days--------|          (0=Min, 1=Max Stress)         |
                         Time  Temp  Temp  Temp Solar Photop                Evapo    Pot TMIN TMIN TMAX TMAX TMAX RAIN|----Water----|---Nitrogen--|-Phosphorus-|
                         Span   Max   Min  Mean   Rad  [day]    CO2   Rain  Trans     ET   <    <    >    >    >    >   Photo         Photo         Photo
                         days    ?    ?    ? MJ/m2     hr    ppm     mm     mm     mm  0?  2? 30? 32? 34?  0mm  synth Growth  synth Growth  synth Growth
----------------------------------------------------------------------------------------------------------------------------------------------------------------
 Emergence-End Juvenile   189   7.5  -4.1   1.7  10.9  10.70  380.0  382.9  178.7  244.7  131  151    0    0    0   44  0.419  0.534  0.001  0.002  0.000  0.000
 End Juvenil-Floral Init   20  21.2   8.3  14.7  17.6  13.79  380.0   50.7   76.8   68.3    0    0    0    0    0    4  0.618  0.719  0.000  0.000  0.000  0.000
 Floral Init-End Lf Grow   11  24.2  13.5  18.8  15.6  14.22  380.0    6.3   46.4   35.8    0    0    0    0    0    2  0.598  0.720  0.000  0.000  0.000  0.000
 End Lf Grth-Beg Grn Fil    8  24.7  15.5  20.1  14.5  14.41  380.0   63.9   22.4   24.9    0    0    0    0    0    3  0.567  0.670  0.000  0.000  0.000  0.000
 Grain Filling Phase       21  28.0  17.2  22.6  19.0  14.54  380.0    1.3   79.6   89.9    0    0    2    1    0    2  0.751  0.834  0.000  0.000  0.000  0.000
   
 Planting to Harvest      258  12.0   0.5   6.2  12.4  11.54  380.0  507.6  420.1  486.4  131  151    3    2    0   57  0.462  0.569  0.004  0.005  0.000  0.000
----------------------------------------------------------------------------------------------------------------------------------------------------------------


*Resource Productivity
 Growing season length: 258 days 

 Precipitation during growing season       507.6 mm[rain]
   Dry Matter Productivity                  3.70 kg[DM]/m3[rain]          =   37.0 kg[DM]/ha per mm[rain]
   Yield Productivity                       0.92 kg[grain yield]/m3[rain] =    9.2 kg[yield]/ha per mm[rain]

 Evapotranspiration during growing season  420.1 mm[ET]
   Dry Matter Productivity                  4.47 kg[DM]/m3[ET]            =   44.7 kg[DM]/ha per mm[ET]
   Yield Productivity                       1.12 kg[grain yield]/m3[ET]   =   11.2 kg[yield]/ha per mm[ET]

 Transpiration during growing season       332.9 mm[EP]
   Dry Matter Productivity                  5.64 kg[DM]/m3[EP]            =   56.4 kg[DM]/ha per mm[EP]
   Yield Productivity                       1.41 kg[grain yield]/m3[EP]   =   14.1 kg[yield]/ha per mm[EP]

 N applied during growing season            380. kg[N applied]/ha
   Dry Matter Productivity                  49.4 kg[DM]/kg[N applied]
   Yield Productivity                       12.3 kg[yield]/kg[N applied]

 N uptake during growing season              403 kg[N uptake]/ha
   Dry Matter Productivity                  46.6 kg[DM]/kg[N uptake]
   Yield Productivity                       11.6 kg[yield]/kg[N uptake]

--------------------------------------------------------------------------------------------------------------

                     Wheat YIELD :     4686 kg/ha    [Dry weight] 

**************************************************************************************************************

*DSSAT Cropping System Model Ver. 4.8.0.027 -release  MAR 20, 2023 17:26:54

*RUN   3        : Sim1                      WHAPS048 TEST2023    1
 MODEL          : WHAPS048 - Wheat
 EXPERIMENT     : TEST2023 SN TEST-KBAD
 DATA PATH      : C:\DSSAT48\Seasonal\
 TREATMENT  1   : Sim1                      WHAPS048


 CROP           : Wheat            CULTIVAR : MARIS FUNDIN     ECOTYPE :DFAULT
 STARTING DATE  : OCT 15 1977
 PLANTING DATE  : OCT 15 1977       LANTS/m2 :  1000.0    ROW SPACING :  10.cm
 WEATHER        : SUWO7701
 SOIL           : CORD860001     TEXTURE : SALO  - DEFAULT - DEEP SANDY LOAM
 SOIL INITIAL C : DEPTH:195cm EXTR. H2O:283.5mm  NO3:  0.0kg/ha  NH4:  0.0kg/ha
 WATER BALANCE  : IRRIGATE ON REPORTED DAP
 IRRIGATION     :        0 mm IN     0 APPLICATIONS
 NITROGEN BAL.  : SOIL-N & N-UPTAKE SIMULATION; NO N-FIXATION
 N-FERTILIZER   :      380 kg/ha IN     2 APPLICATIONS
 RESIDUE/MANURE : INITIAL :     0 kg/ha ;       0 kg/ha IN     0 APPLICATIONS
 ENVIRONM. OPT. : DAYL=    0.00  SRAD=    0.00  TMAX=    0.00  TMIN=    0.00
                  RAIN=    0.00  CO2 =    0.00  DEW =    0.00  WIND=    0.00
 SIMULATION OPT : WATER   :Y  NITROGEN:Y  N-FIX:N  PHOSPH :N  PESTS  :N
                  PHOTO   :C  ET      :R  INFIL:S  HYDROL :R  SOM    :G
                  CO2     :D  NSWIT   :1  EVAP :R  SOIL   :2  STEMP  :D
 MANAGEMENT OPT : PLANTING:R  IRRIG   :D  FERT :D  RESIDUE:R  HARVEST:M
                  WEATHER :M  TILLAGE :Y

*SUMMARY OF SOIL AND GENETIC INPUT PARAMETERS

   SOIL LOWER UPPER   SAT  EXTR  INIT   ROOT   BULK     pH    NO3    NH4    ORG
  DEPTH LIMIT LIMIT    SW    SW    SW   DIST   DENS                          C
   cm   cm3/cm3    cm3/cm3    cm3/cm3         g/cm3         ugN/g  ugN/g     %
-------------------------------------------------------------------------------
  0-  5 0.070 0.270 0.390 0.200 0.270   1.00   1.61   7.10   0.00   0.00   0.70
  5- 15 0.070 0.270 0.390 0.200 0.270   1.00   1.61   7.10   0.00   0.00   0.70
 15- 30 0.070 0.250 0.350 0.180 0.250   0.60   1.61   7.10   0.00   0.00   0.58
 30- 45 0.070 0.250 0.350 0.180 0.250   0.60   1.61   7.10   0.00   0.00   0.58
 45- 60 0.070 0.220 0.320 0.150 0.220   0.30   1.61   7.10   0.00   0.00   0.58
 60- 75 0.070 0.220 0.320 0.150 0.220   0.30   1.61   7.10   0.00   0.00   0.58
 75-105 0.070 0.200 0.300 0.130 0.200   0.22   1.61   7.10   0.00   0.00   0.43
105-135 0.070 0.195 0.285 0.125 0.195   0.22   1.62   7.10   0.00   0.00   0.26
135-165 0.070 0.180 0.280 0.110 0.180   0.22   1.62   7.10   0.00   0.00   0.12
165-195 0.070 0.220 0.310 0.150 0.220   0.22   1.62   7.10   0.00   0.00   0.04

TOT-195  13.6  42.0  61.2  28.3  42.0  <--cm   -  kg/ha-->    0.0    0.0 114114
SOIL ALBEDO    : 0.21      EVAPORATION LIMIT : 6.00         MIN. FACTOR  : 1.00
RUNOFF CURVE # :60.00      DRAINAGE RATE     : 0.60         FERT. FACTOR : 1.00

 Wheat            CULTIVAR: IB1015-MARIS FUNDIN       ECOTYPE: DFAULT


*SIMULATED CROP AND SOIL STATUS AT MAIN DEVELOPMENT STAGES

 RUN NO.     3     Sim1                    

        CROP GROWTH     BIOMASS         LEAF   CROP N     STRESS      STRESS                                           
   DATE  AGE STAGE        kg/ha    LAI   NUM  kg/ha  %   H2O  Nitr Phos1 Phos2  RSTG                                   
 ------  --- ----------   -----  -----  ----  ---  ---  ----  ----  ----  ----  ----                                   
 15 OCT    0 Fallow           0   0.00   0.0    0  0.0  0.00  0.00  0.00  0.00     8
 15 OCT    0 Sowing           0   0.00   0.0    0  0.0  0.00  0.00  0.00  0.00     8
 17 OCT    2 Germinate        0   0.00   0.0    0  0.0  0.00  0.00  0.00  0.00     9
 24 OCT    9 Emergence       50   0.05   0.0    2  4.7  0.00  0.00  0.00  0.00     1
 27 APR  194 End Juveni    6960   7.90   0.0  207  3.0  0.60  0.00  0.00  0.00     2
 17 MAY  214 End Veg       9638   6.90   0.0  228  2.4  0.91  0.00  0.00  0.00     3
 27 MAY  224 End Ear Gr   10815   6.34   0.0  244  2.3  0.95  0.00  0.00  0.00     4
  5 JUN  233 Beg Gr Fil   11400   5.06   0.0  245  2.1  0.99  0.00  0.00  0.00     5
 26 JUN  254 Maturity     13351   0.00   0.0  245  1.8  0.88  0.05  0.00  0.00     6
 27 JUN  255 Maturity     13351   0.00   0.0  245  1.8  0.00  1.00  0.00  0.00     7
 27 JUN  255 Harvest      13351   0.00   0.0  245  1.8  0.00  0.00  0.00  0.00     7


*MAIN GROWTH AND DEVELOPMENT VARIABLES

@     VARIABLE                                         SIMULATED     MEASURED
      --------                                         ---------     --------
      Anthesis day (dap)                                     224          -99
      Physiological maturity day (dap)                       255          -99
      Yield at harvest maturity (kg [dm]/ha)                2609          -99
      Number at maturity (no/m2)                            5729          -99
      Unit wt at maturity (g [dm]/unit)                     45.5          -99
      Number at maturity (no/unit)                           5.7          -99
      Tops weight at maturity (kg [dm]/ha)                 13351          -99
      By-product produced (stalk) at maturity (kg[dm]/ha       0          -99
      Leaf area index, maximum                              8.45          -99
      Harvest index at maturity                            0.195          -99
      Grain N at maturity (kg/ha)                             40          -99
      Tops N at maturity (kg/ha)                             245          -99
      Stem N at maturity (kg/ha)                               0          -99
      Grain N at maturity (%)                                1.6          -99
      Tops weight at anthesis (kg [dm]/ha)                     2          -99
      Tops N at anthesis (kg/ha)                              88          -99
      Leaf number per stem at maturity                      0.00          -99
      Emergence day (dap)                                      9          -99


*ENVIRONMENTAL AND STRESS FACTORS

 |-----Development Phase------|--------------------------------------Environment--------------------------------------|-----------------Stress-----------------|
                              |---------------Average--------------|-----Cumulative-----|--------Count of days--------|          (0=Min, 1=Max Stress)         |
                         Time  Temp  Temp  Temp Solar Photop                Evapo    Pot TMIN TMIN TMAX TMAX TMAX RAIN|----Water----|---Nitrogen--|-Phosphorus-|
                         Span   Max   Min  Mean   Rad  [day]    CO2   Rain  Trans     ET   <    <    >    >    >    >   Photo         Photo         Photo
                         days    ?    ?    ? MJ/m2     hr    ppm     mm     mm     mm  0?  2? 30? 32? 34?  0mm  synth Growth  synth Growth  synth Growth
----------------------------------------------------------------------------------------------------------------------------------------------------------------
 Emergence-End Juvenile   185   8.8  -2.1   3.4  10.8  10.68  380.0  209.9  151.7  258.8  113  139    0    0    0   49  0.479  0.593  0.000  0.001  0.000  0.000
 End Juvenil-Floral Init   20  23.5   6.9  15.2  20.1  13.73  380.0    0.9   76.2   78.7    0    0    0    0    0    1  0.852  0.902  0.000  0.000  0.000  0.000
 Floral Init-End Lf Grow   10  25.4  13.1  19.2  18.1  14.16  380.0   11.9   22.4   38.7    0    0    0    0    0    2  0.926  0.951  0.000  0.000  0.000  0.000
 End Lf Grth-Beg Grn Fil    9  25.5  12.2  18.8  19.7  14.37  380.0    2.5   13.4   37.0    0    0    0    0    0    1  0.991  0.995  0.000  0.000  0.000  0.000
 Grain Filling Phase       21  27.3  17.3  22.3  16.4  14.54  380.0  229.9   50.6   77.4    0    0    1    0    0    7  0.893  0.929  0.000  0.000  0.000  0.000
   
 Planting to Harvest      255  13.3   1.7   7.5  12.7  11.52  380.0  478.1  329.5  515.7  113  141    1    0    0   61  0.559  0.650  0.003  0.005  0.000  0.000
----------------------------------------------------------------------------------------------------------------------------------------------------------------


*Resource Productivity
 Growing season length: 255 days 

 Precipitation during growing season       478.1 mm[rain]
   Dry Matter Productivity                  2.79 kg[DM]/m3[rain]          =   27.9 kg[DM]/ha per mm[rain]
   Yield Productivity                       0.55 kg[grain yield]/m3[rain] =    5.5 kg[yield]/ha per mm[rain]

 Evapotranspiration during growing season  329.5 mm[ET]
   Dry Matter Productivity                  4.05 kg[DM]/m3[ET]            =   40.5 kg[DM]/ha per mm[ET]
   Yield Productivity                       0.79 kg[grain yield]/m3[ET]   =    7.9 kg[yield]/ha per mm[ET]

 Transpiration during growing season       253.9 mm[EP]
   Dry Matter Productivity                  5.26 kg[DM]/m3[EP]            =   52.6 kg[DM]/ha per mm[EP]
   Yield Productivity                       1.03 kg[grain yield]/m3[EP]   =   10.3 kg[yield]/ha per mm[EP]

 N applied during growing season            380. kg[N applied]/ha
   Dry Matter Productivity                  35.1 kg[DM]/kg[N applied]
   Yield Productivity                        6.9 kg[yield]/kg[N applied]

 N uptake during growing season              329 kg[N uptake]/ha
   Dry Matter Productivity                  40.6 kg[DM]/kg[N uptake]
   Yield Productivity                        7.9 kg[yield]/kg[N uptake]

--------------------------------------------------------------------------------------------------------------

                     Wheat YIELD :     2609 kg/ha    [Dry weight] 

**************************************************************************************************************

*DSSAT Cropping System Model Ver. 4.8.0.027 -release  MAR 20, 2023 17:26:54

*RUN   4        : Sim1                      WHAPS048 TEST2023    1
 MODEL          : WHAPS048 - Wheat
 EXPERIMENT     : TEST2023 SN TEST-KBAD
 DATA PATH      : C:\DSSAT48\Seasonal\
 TREATMENT  1   : Sim1                      WHAPS048


 CROP           : Wheat            CULTIVAR : MARIS FUNDIN     ECOTYPE :DFAULT
 STARTING DATE  : OCT 15 1978
 PLANTING DATE  : OCT 15 1978       LANTS/m2 :  1000.0    ROW SPACING :  10.cm
 WEATHER        : SUWO7801
 SOIL           : CORD860001     TEXTURE : SALO  - DEFAULT - DEEP SANDY LOAM
 SOIL INITIAL C : DEPTH:195cm EXTR. H2O:283.5mm  NO3:  0.0kg/ha  NH4:  0.0kg/ha
 WATER BALANCE  : IRRIGATE ON REPORTED DAP
 IRRIGATION     :        0 mm IN     0 APPLICATIONS
 NITROGEN BAL.  : SOIL-N & N-UPTAKE SIMULATION; NO N-FIXATION
 N-FERTILIZER   :      380 kg/ha IN     2 APPLICATIONS
 RESIDUE/MANURE : INITIAL :     0 kg/ha ;       0 kg/ha IN     0 APPLICATIONS
 ENVIRONM. OPT. : DAYL=    0.00  SRAD=    0.00  TMAX=    0.00  TMIN=    0.00