*SIMULATION OVERVIEW FILE

*DSSAT Cropping System Model Ver. 4.8.0.027 -release  MAR 24, 2023 18:48:10

*RUN   1        : Sim1                      WHAPS048 TEST2023    1
 MODEL          : WHAPS048 - Wheat
 EXPERIMENT     : TEST2023 SN TEST-KBAD
 DATA PATH      : C:\DSSAT48\Seasonal\
 TREATMENT  1   : Sim1                      WHAPS048


 CROP           : Wheat            CULTIVAR : MARIS FUNDIN     ECOTYPE :DFAULT
 STARTING DATE  : OCT 15 1975
 PLANTING DATE  : OCT 15 1975       LANTS/m2 :  1000.0    ROW SPACING :  10.cm
 WEATHER        : CHEO7501
 SOIL           : CORD860001     TEXTURE : SALO  - DEFAULT - DEEP SANDY LOAM
 SOIL INITIAL C : DEPTH:195cm EXTR. H2O:283.5mm  NO3:  0.0kg/ha  NH4:  0.0kg/ha
 WATER BALANCE  : IRRIGATE ON REPORTED DAP
 IRRIGATION     :        0 mm IN     0 APPLICATIONS
 NITROGEN BAL.  : SOIL-N & N-UPTAKE SIMULATION; NO N-FIXATION
 N-FERTILIZER   :      380 kg/ha IN     2 APPLICATIONS
 RESIDUE/MANURE : INITIAL :     0 kg/ha ;       0 kg/ha IN     0 APPLICATIONS
 ENVIRONM. OPT. : DAYL=    0.00  SRAD=    0.00  TMAX=    0.00  TMIN=    0.00
                  RAIN=    0.00  CO2 =    0.00  DEW =    0.00  WIND=    0.00
 SIMULATION OPT : WATER   :Y  NITROGEN:Y  N-FIX:N  PHOSPH :N  PESTS  :N
                  PHOTO   :C  ET      :R  INFIL:S  HYDROL :R  SOM    :G
                  CO2     :D  NSWIT   :1  EVAP :R  SOIL   :2  STEMP  :D
 MANAGEMENT OPT : PLANTING:R  IRRIG   :D  FERT :D  RESIDUE:R  HARVEST:M
                  WEATHER :M  TILLAGE :Y

*SUMMARY OF SOIL AND GENETIC INPUT PARAMETERS

   SOIL LOWER UPPER   SAT  EXTR  INIT   ROOT   BULK     pH    NO3    NH4    ORG
  DEPTH LIMIT LIMIT    SW    SW    SW   DIST   DENS                          C
   cm   cm3/cm3    cm3/cm3    cm3/cm3         g/cm3         ugN/g  ugN/g     %
-------------------------------------------------------------------------------
  0-  5 0.070 0.270 0.390 0.200 0.270   1.00   1.61   7.10   0.00   0.00   0.70
  5- 15 0.070 0.270 0.390 0.200 0.270   1.00   1.61   7.10   0.00   0.00   0.70
 15- 30 0.070 0.250 0.350 0.180 0.250   0.60   1.61   7.10   0.00   0.00   0.58
 30- 45 0.070 0.250 0.350 0.180 0.250   0.60   1.61   7.10   0.00   0.00   0.58
 45- 60 0.070 0.220 0.320 0.150 0.220   0.30   1.61   7.10   0.00   0.00   0.58
 60- 75 0.070 0.220 0.320 0.150 0.220   0.30   1.61   7.10   0.00   0.00   0.58
 75-105 0.070 0.200 0.300 0.130 0.200   0.22   1.61   7.10   0.00   0.00   0.43
105-135 0.070 0.195 0.285 0.125 0.195   0.22   1.62   7.10   0.00   0.00   0.26
135-165 0.070 0.180 0.280 0.110 0.180   0.22   1.62   7.10   0.00   0.00   0.12
165-195 0.070 0.220 0.310 0.150 0.220   0.22   1.62   7.10   0.00   0.00   0.04

TOT-195  13.6  42.0  61.2  28.3  42.0  <--cm   -  kg/ha-->    0.0    0.0 114114
SOIL ALBEDO    : 0.21      EVAPORATION LIMIT : 6.00         MIN. FACTOR  : 1.00
RUNOFF CURVE # :60.00      DRAINAGE RATE     : 0.60         FERT. FACTOR : 1.00

 Wheat            CULTIVAR: IB1015-MARIS FUNDIN       ECOTYPE: DFAULT


*SIMULATED CROP AND SOIL STATUS AT MAIN DEVELOPMENT STAGES

 RUN NO.     1     Sim1                    

        CROP GROWTH     BIOMASS         LEAF   CROP N     STRESS      STRESS                                           
   DATE  AGE STAGE        kg/ha    LAI   NUM  kg/ha  %   H2O  Nitr Phos1 Phos2  RSTG                                   
 ------  --- ----------   -----  -----  ----  ---  ---  ----  ----  ----  ----  ----                                   
 15 OCT    0 Fallow           0   0.00   0.0    0  0.0  0.00  0.00  0.00  0.00     8
 15 OCT    0 Sowing           0   0.00   0.0    0  0.0  0.00  0.00  0.00  0.00     8
 17 OCT    2 Germinate        0   0.00   0.0    0  0.0  0.00  0.00  0.00  0.00     9
 23 OCT    8 Emergence       47   0.05   0.0    2  4.8  0.00  0.00  0.00  0.00     1
 23 APR  191 End Juveni    6118   7.63   0.0  212  3.5  0.52  0.00  0.00  0.00     2
 15 MAY  213 End Veg       9600   8.25   0.0  276  2.9  0.68  0.00  0.00  0.00     3
 26 MAY  224 End Ear Gr   11192   7.71   0.0  290  2.6  0.62  0.00  0.00  0.00     4
  3 JUN  232 Beg Gr Fil   12158   6.75   0.0  290  2.4  0.54  0.00  0.00  0.00     5
 25 JUN  254 Maturity     14391   0.02   0.0  290  2.0  0.73  0.05  0.00  0.00     6
 26 JUN  255 Maturity     14391   0.02   0.0  290  2.0  0.71  1.00  0.00  0.00     7
 26 JUN  255 Harvest      14391   0.02   0.0  290  2.0  0.00  0.00  0.00  0.00     7


*MAIN GROWTH AND DEVELOPMENT VARIABLES

@     VARIABLE                                         SIMULATED     MEASURED
      --------                                         ---------     --------
      Anthesis day (dap)                                     224          -99
      Physiological maturity day (dap)                       255          -99
      Yield at harvest maturity (kg [dm]/ha)                3277          -99
      Number at maturity (no/m2)                            7725          -99
      Unit wt at maturity (g [dm]/unit)                     42.4          -99
      Number at maturity (no/unit)                           7.7          -99
      Tops weight at maturity (kg [dm]/ha)                 14391          -99
      By-product produced (stalk) at maturity (kg[dm]/ha       0          -99
      Leaf area index, maximum                              8.76          -99
      Harvest index at maturity                            0.228          -99
      Grain N at maturity (kg/ha)                             58          -99
      Tops N at maturity (kg/ha)                             290          -99
      Stem N at maturity (kg/ha)                               0          -99
      Grain N at maturity (%)                                1.8          -99
      Tops weight at anthesis (kg [dm]/ha)                     2          -99
      Tops N at anthesis (kg/ha)                              88          -99
      Leaf number per stem at maturity                      0.00          -99
      Emergence day (dap)                                      8          -99


*ENVIRONMENTAL AND STRESS FACTORS

 |-----Development Phase------|--------------------------------------Environment--------------------------------------|-----------------Stress-----------------|
                              |---------------Average--------------|-----Cumulative-----|--------Count of days--------|          (0=Min, 1=Max Stress)         |
                         Time  Temp  Temp  Temp Solar Photop                Evapo    Pot TMIN TMIN TMAX TMAX TMAX RAIN|----Water----|---Nitrogen--|-Phosphorus-|
                         Span   Max   Min  Mean   Rad  [day]    CO2   Rain  Trans     ET   <    <    >    >    >    >   Photo         Photo         Photo
                         days    ?    ?    ? MJ/m2     hr    ppm     mm     mm     mm  0?  2? 30? 32? 34?  0mm  synth Growth  synth Growth  synth Growth
----------------------------------------------------------------------------------------------------------------------------------------------------------------
 Emergence-End Juvenile   183   9.1  -2.0   3.5   6.8  10.66  380.0  195.1  125.5  162.7  105  125    0    0    0   51  0.394  0.519  0.001  0.002  0.000  0.000
 End Juvenil-Floral Init   22  19.6   7.7  13.7  10.4  13.63  380.0   57.6   57.3   43.0    0    0    0    0    0    8  0.557  0.693  0.000  0.000  0.000  0.000
 Floral Init-End Lf Grow   11  24.1  11.3  17.7  10.3  14.11  380.0    8.0   39.8   23.4    0    0    1    0    0    2  0.550  0.670  0.000  0.000  0.000  0.000
 End Lf Grth-Beg Grn Fil    8  27.3  14.8  21.0   6.6  14.32  380.0    2.2   17.2   11.6    0    0    1    0    0    2  0.337  0.433  0.000  0.000  0.000  0.000
 Grain Filling Phase       22  26.4  16.4  21.4  10.7  14.48  380.0   68.7   56.7   52.0    0    0    0    0    0   10  0.626  0.735  0.000  0.000  0.000  0.000
   
 Planting to Harvest      255  13.2   1.9   7.5   7.9  11.53  380.0  331.7  313.6  320.6  105  125    2    0    0   74  0.421  0.541  0.004  0.005  0.000  0.000
----------------------------------------------------------------------------------------------------------------------------------------------------------------


*Resource Productivity
 Growing season length: 255 days 

 Precipitation during growing season       331.7 mm[rain]
   Dry Matter Productivity                  4.34 kg[DM]/m3[rain]          =   43.4 kg[DM]/ha per mm[rain]
   Yield Productivity                       0.99 kg[grain yield]/m3[rain] =    9.9 kg[yield]/ha per mm[rain]

 Evapotranspiration during growing season  313.6 mm[ET]
   Dry Matter Productivity                  4.59 kg[DM]/m3[ET]            =   45.9 kg[DM]/ha per mm[ET]
   Yield Productivity                       1.05 kg[grain yield]/m3[ET]   =   10.5 kg[yield]/ha per mm[ET]

 Transpiration during growing season       239.8 mm[EP]
   Dry Matter Productivity                  6.00 kg[DM]/m3[EP]            =   60.0 kg[DM]/ha per mm[EP]
   Yield Productivity                       1.37 kg[grain yield]/m3[EP]   =   13.7 kg[yield]/ha per mm[EP]

 N applied during growing season            380. kg[N applied]/ha
   Dry Matter Productivity                  37.9 kg[DM]/kg[N applied]
   Yield Productivity                        8.6 kg[yield]/kg[N applied]

 N uptake during growing season              357 kg[N uptake]/ha
   Dry Matter Productivity                  40.3 kg[DM]/kg[N uptake]
   Yield Productivity                        9.2 kg[yield]/kg[N uptake]

--------------------------------------------------------------------------------------------------------------

                     Wheat YIELD :     3277 kg/ha    [Dry weight] 

**************************************************************************************************************

*DSSAT Cropping System Model Ver. 4.8.0.027 -release  MAR 24, 2023 18:48:10

*RUN   2        : Sim1                      WHAPS048 TEST2023    1
 MODEL          : WHAPS048 - Wheat
 EXPERIMENT     : TEST2023 SN TEST-KBAD
 DATA PATH      : C:\DSSAT48\Seasonal\
 TREATMENT  1   : Sim1                      WHAPS048


 CROP           : Wheat            CULTIVAR : MARIS FUNDIN     ECOTYPE :DFAULT
 STARTING DATE  : OCT 14 1976
 PLANTING DATE  : OCT 14 1976       LANTS/m2 :  1000.0    ROW SPACING :  10.cm
 WEATHER        : CHEO7601
 SOIL           : CORD860001     TEXTURE : SALO  - DEFAULT - DEEP SANDY LOAM
 SOIL INITIAL C : DEPTH:195cm EXTR. H2O:283.5mm  NO3:  0.0kg/ha  NH4:  0.0kg/ha
 WATER BALANCE  : IRRIGATE ON REPORTED DAP
 IRRIGATION     :        0 mm IN     0 APPLICATIONS
 NITROGEN BAL.  : SOIL-N & N-UPTAKE SIMULATION; NO N-FIXATION
 N-FERTILIZER   :      380 kg/ha IN     2 APPLICATIONS
 RESIDUE/MANURE : INITIAL :     0 kg/ha ;       0 kg/ha IN     0 APPLICATIONS
 ENVIRONM. OPT. : DAYL=    0.00  SRAD=    0.00  TMAX=    0.00  TMIN=    0.00
                  RAIN=    0.00  CO2 =    0.00  DEW =    0.00  WIND=    0.00
 SIMULATION OPT : WATER   :Y  NITROGEN:Y  N-FIX:N  PHOSPH :N  PESTS  :N
                  PHOTO   :C  ET      :R  INFIL:S  HYDROL :R  SOM    :G
                  CO2     :D  NSWIT   :1  EVAP :R  SOIL   :2  STEMP  :D
 MANAGEMENT OPT : PLANTING:R  IRRIG   :D  FERT :D  RESIDUE:R  HARVEST:M
                  WEATHER :M  TILLAGE :Y

*SUMMARY OF SOIL AND GENETIC INPUT PARAMETERS

   SOIL LOWER UPPER   SAT  EXTR  INIT   ROOT   BULK     pH    NO3    NH4    ORG
  DEPTH LIMIT LIMIT    SW    SW    SW   DIST   DENS                          C
   cm   cm3/cm3    cm3/cm3    cm3/cm3         g/cm3         ugN/g  ugN/g     %
-------------------------------------------------------------------------------
  0-  5 0.070 0.270 0.390 0.200 0.270   1.00   1.61   7.10   0.00   0.00   0.70
  5- 15 0.070 0.270 0.390 0.200 0.270   1.00   1.61   7.10   0.00   0.00   0.70
 15- 30 0.070 0.250 0.350 0.180 0.250   0.60   1.61   7.10   0.00   0.00   0.58
 30- 45 0.070 0.250 0.350 0.180 0.250   0.60   1.61   7.10   0.00   0.00   0.58
 45- 60 0.070 0.220 0.320 0.150 0.220   0.30   1.61   7.10   0.00   0.00   0.58
 60- 75 0.070 0.220 0.320 0.150 0.220   0.30   1.61   7.10   0.00   0.00   0.58
 75-105 0.070 0.200 0.300 0.130 0.200   0.22   1.61   7.10   0.00   0.00   0.43
105-135 0.070 0.195 0.285 0.125 0.195   0.22   1.62   7.10   0.00   0.00   0.26
135-165 0.070 0.180 0.280 0.110 0.180   0.22   1.62   7.10   0.00   0.00   0.12
165-195 0.070 0.220 0.310 0.150 0.220   0.22   1.62   7.10   0.00   0.00   0.04

TOT-195  13.6  42.0  61.2  28.3  42.0  <--cm   -  kg/ha-->    0.0    0.0 114114
SOIL ALBEDO    : 0.21      EVAPORATION LIMIT : 6.00         MIN. FACTOR  : 1.00
RUNOFF CURVE # :60.00      DRAINAGE RATE     : 0.60         FERT. FACTOR : 1.00

 Wheat            CULTIVAR: IB1015-MARIS FUNDIN       ECOTYPE: DFAULT


*SIMULATED CROP AND SOIL STATUS AT MAIN DEVELOPMENT STAGES

 RUN NO.     2     Sim1                    

        CROP GROWTH     BIOMASS         LEAF   CROP N     STRESS      STRESS                                           
   DATE  AGE STAGE        kg/ha    LAI   NUM  kg/ha  %   H2O  Nitr Phos1 Phos2  RSTG                                   
 ------  --- ----------   -----  -----  ----  ---  ---  ----  ----  ----  ----  ----                                   
 14 OCT    0 Fallow           0   0.00   0.0    0  0.0  0.00  0.00  0.00  0.00     8
 14 OCT    0 Sowing           0   0.00   0.0    0  0.0  0.00  0.00  0.00  0.00     8
 16 OCT    2 Germinate        0   0.00   0.0    0  0.0  0.00  0.00  0.00  0.00     9
 22 OCT    8 Emergence       47   0.05   0.0    2  4.9  0.17  0.00  0.00  0.00     1
 24 APR  192 End Juveni    6138   7.63   0.0  222  3.6  0.36  0.00  0.00  0.00     2
 13 MAY  211 End Veg       9428   8.17   0.0  282  3.0  0.74  0.00  0.00  0.00     3
 25 MAY  223 End Ear Gr   11462   7.59   0.0  301  2.6  0.64  0.00  0.00  0.00     4
  2 JUN  231 Beg Gr Fil   12615   6.67   0.0  301  2.4  0.64  0.00  0.00  0.00     5
 23 JUN  252 Maturity     15145   0.05   0.0  301  2.0  0.82  0.05  0.00  0.00     6
 24 JUN  253 Maturity     15145   0.05   0.0  301  2.0  0.49  1.00  0.00  0.00     7
 24 JUN  253 Harvest      15145   0.05   0.0  301  2.0  0.00  0.00  0.00  0.00     7


*MAIN GROWTH AND DEVELOPMENT VARIABLES

@     VARIABLE                                         SIMULATED     MEASURED
      --------                                         ---------     --------
      Anthesis day (dap)                                     223          -99
      Physiological maturity day (dap)                       253          -99
      Yield at harvest maturity (kg [dm]/ha)                3740          -99
      Number at maturity (no/m2)                            8754          -99
      Unit wt at maturity (g [dm]/unit)                     42.7          -99
      Number at maturity (no/unit)                           8.8          -99
      Tops weight at maturity (kg [dm]/ha)                 15145          -99
      By-product produced (stalk) at maturity (kg[dm]/ha       0          -99
      Leaf area index, maximum                              8.40          -99
      Harvest index at maturity                            0.247          -99
      Grain N at maturity (kg/ha)                             65          -99
      Tops N at maturity (kg/ha)                             301          -99
      Stem N at maturity (kg/ha)                               0          -99
      Grain N at maturity (%)                                1.7          -99
      Tops weight at anthesis (kg [dm]/ha)                     2          -99
      Tops N at anthesis (kg/ha)                              88          -99
      Leaf number per stem at maturity                      0.00          -99
      Emergence day (dap)                                      8          -99


*ENVIRONMENTAL AND STRESS FACTORS

 |-----Development Phase------|--------------------------------------Environment--------------------------------------|-----------------Stress-----------------|
                              |---------------Average--------------|-----Cumulative-----|--------Count of days--------|          (0=Min, 1=Max Stress)         |
                         Time  Temp  Temp  Temp Solar Photop                Evapo    Pot TMIN TMIN TMAX TMAX TMAX RAIN|----Water----|---Nitrogen--|-Phosphorus-|
                         Span   Max   Min  Mean   Rad  [day]    CO2   Rain  Trans     ET   <    <    >    >    >    >   Photo         Photo         Photo
                         days    ?    ?    ? MJ/m2     hr    ppm     mm     mm     mm  0?  2? 30? 32? 34?  0mm  synth Growth  synth Growth  synth Growth
----------------------------------------------------------------------------------------------------------------------------------------------------------------
 Emergence-End Juvenile   184   7.9  -3.6   2.1   6.4  10.65  380.0  225.7  152.6  149.7  130  141    0    0    0   52  0.274  0.369  0.001  0.002  0.000  0.000
 End Juvenil-Floral Init   19  21.9   9.4  15.7  11.4  13.58  380.0   81.8   62.9   43.0    0    0    0    0    0    6  0.598  0.697  0.000  0.000  0.000  0.000
 Floral Init-End Lf Grow   12  24.1  11.5  17.8  12.4  14.05  380.0   31.8   50.2   30.7    0    0    0    0    0    3  0.561  0.644  0.000  0.000  0.000  0.000
 End Lf Grth-Beg Grn Fil    8  24.9  16.0  20.5  10.0  14.28  380.0   41.7   21.1   17.3    0    0    0    0    0    6  0.511  0.632  0.000  0.000  0.000  0.000
 Grain Filling Phase       21  28.1  16.4  22.3  14.2  14.47  380.0    5.4   66.0   66.7    0    0    3    0    0    5  0.744  0.830  0.000  0.000  0.000  0.000
   
 Planting to Harvest      253  12.5   0.8   6.6   7.9  11.49  380.0  387.6  366.1  322.0  130  141    3    0    0   73  0.349  0.442  0.004  0.006  0.000  0.000
----------------------------------------------------------------------------------------------------------------------------------------------------------------


*Resource Productivity
 Growing season length: 253 days 

 Precipitation during growing season       387.6 mm[rain]
   Dry Matter Productivity                  3.91 kg[DM]/m3[rain]          =   39.1 kg[DM]/ha per mm[rain]
   Yield Productivity                       0.96 kg[grain yield]/m3[rain] =    9.6 kg[yield]/ha per mm[rain]

 Evapotranspiration during growing season  366.1 mm[ET]
   Dry Matter Productivity                  4.14 kg[DM]/m3[ET]            =   41.4 kg[DM]/ha per mm[ET]
   Yield Productivity                       1.02 kg[grain yield]/m3[ET]   =   10.2 kg[yield]/ha per mm[ET]

 Transpiration during growing season       286.9 mm[EP]
   Dry Matter Productivity                  5.28 kg[DM]/m3[EP]            =   52.8 kg[DM]/ha per mm[EP]
   Yield Productivity                       1.30 kg[grain yield]/m3[EP]   =   13.0 kg[yield]/ha per mm[EP]

 N applied during growing season            380. kg[N applied]/ha
   Dry Matter Productivity                  39.9 kg[DM]/kg[N applied]
   Yield Productivity                        9.8 kg[yield]/kg[N applied]

 N uptake during growing season              367 kg[N uptake]/ha
   Dry Matter Productivity                  41.3 kg[DM]/kg[N uptake]
   Yield Productivity                       10.2 kg[yield]/kg[N uptake]

--------------------------------------------------------------------------------------------------------------

                     Wheat YIELD :     3740 kg/ha    [Dry weight] 

**************************************************************************************************************

*DSSAT Cropping System Model Ver. 4.8.0.027 -release  MAR 24, 2023 18:48:10

*RUN   3        : Sim1                      WHAPS048 TEST2023    1
 MODEL          : WHAPS048 - Wheat
 EXPERIMENT     : TEST2023 SN TEST-KBAD
 DATA PATH      : C:\DSSAT48\Seasonal\
 TREATMENT  1   : Sim1                      WHAPS048


 CROP           : Wheat            CULTIVAR : MARIS FUNDIN     ECOTYPE :DFAULT
 STARTING DATE  : OCT 15 1977
 PLANTING DATE  : OCT 15 1977       LANTS/m2 :  1000.0    ROW SPACING :  10.cm
 WEATHER        : CHEO7701
 SOIL           : CORD860001     TEXTURE : SALO  - DEFAULT - DEEP SANDY LOAM
 SOIL INITIAL C : DEPTH:195cm EXTR. H2O:283.5mm  NO3:  0.0kg/ha  NH4:  0.0kg/ha
 WATER BALANCE  : IRRIGATE ON REPORTED DAP
 IRRIGATION     :        0 mm IN     0 APPLICATIONS
 NITROGEN BAL.  : SOIL-N & N-UPTAKE SIMULATION; NO N-FIXATION
 N-FERTILIZER   :      380 kg/ha IN     2 APPLICATIONS
 RESIDUE/MANURE : INITIAL :     0 kg/ha ;       0 kg/ha IN     0 APPLICATIONS
 ENVIRONM. OPT. : DAYL=    0.00  SRAD=    0.00  TMAX=    0.00  TMIN=    0.00
                  RAIN=    0.00  CO2 =    0.00  DEW =    0.00  WIND=    0.00
 SIMULATION OPT : WATER   :Y  NITROGEN:Y  N-FIX:N  PHOSPH :N  PESTS  :N
                  PHOTO   :C  ET      :R  INFIL:S  HYDROL :R  SOM    :G
                  CO2     :D  NSWIT   :1  EVAP :R  SOIL   :2  STEMP  :D
 MANAGEMENT OPT : PLANTING:R  IRRIG   :D  FERT :D  RESIDUE:R  HARVEST:M
                  WEATHER :M  TILLAGE :Y

*SUMMARY OF SOIL AND GENETIC INPUT PARAMETERS

   SOIL LOWER UPPER   SAT  EXTR  INIT   ROOT   BULK     pH    NO3    NH4    ORG
  DEPTH LIMIT LIMIT    SW    SW    SW   DIST   DENS                          C
   cm   cm3/cm3    cm3/cm3    cm3/cm3         g/cm3         ugN/g  ugN/g     %
-------------------------------------------------------------------------------
  0-  5 0.070 0.270 0.390 0.200 0.270   1.00   1.61   7.10   0.00   0.00   0.70
  5- 15 0.070 0.270 0.390 0.200 0.270   1.00   1.61   7.10   0.00   0.00   0.70
 15- 30 0.070 0.250 0.350 0.180 0.250   0.60   1.61   7.10   0.00   0.00   0.58
 30- 45 0.070 0.250 0.350 0.180 0.250   0.60   1.61   7.10   0.00   0.00   0.58
 45- 60 0.070 0.220 0.320 0.150 0.220   0.30   1.61   7.10   0.00   0.00   0.58
 60- 75 0.070 0.220 0.320 0.150 0.220   0.30   1.61   7.10   0.00   0.00   0.58
 75-105 0.070 0.200 0.300 0.130 0.200   0.22   1.61   7.10   0.00   0.00   0.43
105-135 0.070 0.195 0.285 0.125 0.195   0.22   1.62   7.10   0.00   0.00   0.26
135-165 0.070 0.180 0.280 0.110 0.180   0.22   1.62   7.10   0.00   0.00   0.12
165-195 0.070 0.220 0.310 0.150 0.220   0.22   1.62   7.10   0.00   0.00   0.04

TOT-195  13.6  42.0  61.2  28.3  42.0  <--cm   -  kg/ha-->    0.0    0.0 114114
SOIL ALBEDO    : 0.21      EVAPORATION LIMIT : 6.00         MIN. FACTOR  : 1.00
RUNOFF CURVE # :60.00      DRAINAGE RATE     : 0.60         FERT. FACTOR : 1.00

 Wheat            CULTIVAR: IB1015-MARIS FUNDIN       ECOTYPE: DFAULT


*SIMULATED CROP AND SOIL STATUS AT MAIN DEVELOPMENT STAGES

 RUN NO.     3     Sim1                    

        CROP GROWTH     BIOMASS         LEAF   CROP N     STRESS      STRESS                                           
   DATE  AGE STAGE        kg/ha    LAI   NUM  kg/ha  %   H2O  Nitr Phos1 Phos2  RSTG                                   
 ------  --- ----------   -----  -----  ----  ---  ---  ----  ----  ----  ----  ----                                   
 15 OCT    0 Fallow           0   0.00   0.0    0  0.0  0.00  0.00  0.00  0.00     8
 15 OCT    0 Sowing           0   0.00   0.0    0  0.0  0.00  0.00  0.00  0.00     8
 17 OCT    2 Germinate        0   0.00   0.0    0  0.0  0.00  0.00  0.00  0.00     9
 24 OCT    9 Emergence       47   0.04   0.0    2  5.0  0.14  0.00  0.00  0.00     1
 23 APR  190 End Juveni    5720   6.54   0.0  176  3.1  0.51  0.00  0.00  0.00     2
 13 MAY  210 End Veg       8870   6.69   0.0  230  2.6  0.80  0.00  0.00  0.00     3
 23 MAY  220 End Ear Gr   10070   6.18   0.0  251  2.5  0.94  0.00  0.00  0.00     4
 31 MAY  228 Beg Gr Fil   10612   4.99   0.0  251  2.4  0.99  0.00  0.00  0.00     5
 21 JUN  249 Maturity     12195   0.00   0.0  251  2.1  0.85  0.05  0.00  0.00     6
 22 JUN  250 Maturity     12195   0.00   0.0  251  2.1  0.32  1.00  0.00  0.00     7
 22 JUN  250 Harvest      12195   0.00   0.0  251  2.1  0.00  0.00  0.00  0.00     7


*MAIN GROWTH AND DEVELOPMENT VARIABLES

@     VARIABLE                                         SIMULATED     MEASURED
      --------                                         ---------     --------
      Anthesis day (dap)                                     220          -99
      Physiological maturity day (dap)                       250          -99
      Yield at harvest maturity (kg [dm]/ha)                2221          -99
      Number at maturity (no/m2)                            6150          -99
      Unit wt at maturity (g [dm]/unit)                     36.1          -99
      Number at maturity (no/unit)                           6.1          -99
      Tops weight at maturity (kg [dm]/ha)                 12195          -99
      By-product produced (stalk) at maturity (kg[dm]/ha       0          -99
      Leaf area index, maximum                              7.31          -99
      Harvest index at maturity                            0.182          -99
      Grain N at maturity (kg/ha)                             44          -99
      Tops N at maturity (kg/ha)                             251          -99
      Stem N at maturity (kg/ha)                               0          -99
      Grain N at maturity (%)                                2.0          -99
      Tops weight at anthesis (kg [dm]/ha)                     2          -99
      Tops N at anthesis (kg/ha)                              88          -99
      Leaf number per stem at maturity                      0.00          -99
      Emergence day (dap)                                      9          -99


*ENVIRONMENTAL AND STRESS FACTORS

 |-----Development Phase------|--------------------------------------Environment--------------------------------------|-----------------Stress-----------------|
                              |---------------Average--------------|-----Cumulative-----|--------Count of days--------|          (0=Min, 1=Max Stress)         |
                         Time  Temp  Temp  Temp Solar Photop                Evapo    Pot TMIN TMIN TMAX TMAX TMAX RAIN|----Water----|---Nitrogen--|-Phosphorus-|
                         Span   Max   Min  Mean   Rad  [day]    CO2   Rain  Trans     ET   <    <    >    >    >    >   Photo         Photo         Photo
                         days    ?    ?    ? MJ/m2     hr    ppm     mm     mm     mm  0?  2? 30? 32? 34?  0mm  synth Growth  synth Growth  synth Growth
----------------------------------------------------------------------------------------------------------------------------------------------------------------
 Emergence-End Juvenile   181   9.4  -1.7   3.9   7.9  10.65  380.0  255.9  128.8  192.4  115  135    0    0    0   61  0.404  0.515  0.000  0.001  0.000  0.000
 End Juvenil-Floral Init   20  23.5   6.3  14.9  13.3  13.57  380.0    5.7   82.8   51.9    0    1    0    0    0    3  0.729  0.794  0.000  0.000  0.000  0.000
 Floral Init-End Lf Grow   10  27.5  11.0  19.2  14.9  14.02  380.0   16.9   35.5   32.3    0    0    6    0    0    2  0.913  0.942  0.000  0.000  0.000  0.000
 End Lf Grth-Beg Grn Fil    8  29.3  14.8  22.0  16.9  14.24  380.0    1.9   22.7   30.2    0    0    5    0    0    3  0.977  0.985  0.000  0.000  0.000  0.000
 Grain Filling Phase       21  27.9  15.7  21.8  13.5  14.45  380.0  112.6   49.4   63.8    0    0    5    2    0   10  0.821  0.881  0.000  0.000  0.000  0.000
   
 Planting to Harvest      250  14.0   1.7   7.9   9.4  11.47  380.0  435.6  334.8  389.3  115  137   16    2    0   80  0.487  0.581  0.004  0.005  0.000  0.000
----------------------------------------------------------------------------------------------------------------------------------------------------------------


*Resource Productivity
 Growing season length: 250 days 

 Precipitation during growing season       435.6 mm[rain]
   Dry Matter Productivity                  2.80 kg[DM]/m3[rain]          =   28.0 kg[DM]/ha per mm[rain]
   Yield Productivity                       0.51 kg[grain yield]/m3[rain] =    5.1 kg[yield]/ha per mm[rain]

 Evapotranspiration during growing season  334.8 mm[ET]
   Dry Matter Productivity                  3.64 kg[DM]/m3[ET]            =   36.4 kg[DM]/ha per mm[ET]
   Yield Productivity                       0.66 kg[grain yield]/m3[ET]   =    6.6 kg[yield]/ha per mm[ET]

 Transpiration during growing season       254.6 mm[EP]
   Dry Matter Productivity                  4.79 kg[DM]/m3[EP]            =   47.9 kg[DM]/ha per mm[EP]
   Yield Productivity                       0.87 kg[grain yield]/m3[EP]   =    8.7 kg[yield]/ha per mm[EP]

 N applied during growing season            380. kg[N applied]/ha
   Dry Matter Productivity                  32.1 kg[DM]/kg[N applied]
   Yield Productivity                        5.8 kg[yield]/kg[N applied]

 N uptake during growing season              316 kg[N uptake]/ha
   Dry Matter Productivity                  38.6 kg[DM]/kg[N uptake]
   Yield Productivity                        7.0 kg[yield]/kg[N uptake]

--------------------------------------------------------------------------------------------------------------

                     Wheat YIELD :     2221 kg/ha    [Dry weight] 

**************************************************************************************************************

*DSSAT Cropping System Model Ver. 4.8.0.027 -release  MAR 24, 2023 18:48:10

*RUN   4        : Sim1                      WHAPS048 TEST2023    1
 MODEL          : WHAPS048 - Wheat
 EXPERIMENT     : TEST2023 SN TEST-KBAD
 DATA PATH      : C:\DSSAT48\Seasonal\
 TREATMENT  1   : Sim1                      WHAPS048


 CROP           : Wheat            CULTIVAR : MARIS FUNDIN     ECOTYPE :DFAULT
 STARTING DATE  : OCT 15 1978
 PLANTING DATE  : OCT 15 1978       LANTS/m2 :  1000.0    ROW SPACING :  10.cm
 WEATHER        : CHEO7801
 SOIL           : CORD860001     TEXTURE : SALO  - DEFAULT - DEEP SANDY LOAM