*SIMULATION OVERVIEW FILE

*DSSAT Cropping System Model Ver. 4.8.0.027 -release  MAR 20, 2023 17:19:16

*RUN   1        : Sim1                      WHAPS048 TEST2023    1
 MODEL          : WHAPS048 - Wheat
 EXPERIMENT     : TEST2023 SN TEST-KBAD
 DATA PATH      : C:\DSSAT48\Seasonal\
 TREATMENT  1   : Sim1                      WHAPS048


 CROP           : Wheat            CULTIVAR : MARIS FUNDIN     ECOTYPE :DFAULT
 STARTING DATE  : OCT 15 1975
 PLANTING DATE  : OCT 15 1975       LANTS/m2 :  1000.0    ROW SPACING :  10.cm
 WEATHER        : JINJ7501
 SOIL           : CORD860001     TEXTURE : SALO  - DEFAULT - DEEP SANDY LOAM
 SOIL INITIAL C : DEPTH:195cm EXTR. H2O:283.5mm  NO3:  0.0kg/ha  NH4:  0.0kg/ha
 WATER BALANCE  : IRRIGATE ON REPORTED DAP
 IRRIGATION     :        0 mm IN     0 APPLICATIONS
 NITROGEN BAL.  : SOIL-N & N-UPTAKE SIMULATION; NO N-FIXATION
 N-FERTILIZER   :      380 kg/ha IN     2 APPLICATIONS
 RESIDUE/MANURE : INITIAL :     0 kg/ha ;       0 kg/ha IN     0 APPLICATIONS
 ENVIRONM. OPT. : DAYL=    0.00  SRAD=    0.00  TMAX=    0.00  TMIN=    0.00
                  RAIN=    0.00  CO2 =    0.00  DEW =    0.00  WIND=    0.00
 SIMULATION OPT : WATER   :Y  NITROGEN:Y  N-FIX:N  PHOSPH :N  PESTS  :N
                  PHOTO   :C  ET      :R  INFIL:S  HYDROL :R  SOM    :G
                  CO2     :D  NSWIT   :1  EVAP :R  SOIL   :2  STEMP  :D
 MANAGEMENT OPT : PLANTING:R  IRRIG   :D  FERT :D  RESIDUE:R  HARVEST:M
                  WEATHER :M  TILLAGE :Y

*SUMMARY OF SOIL AND GENETIC INPUT PARAMETERS

   SOIL LOWER UPPER   SAT  EXTR  INIT   ROOT   BULK     pH    NO3    NH4    ORG
  DEPTH LIMIT LIMIT    SW    SW    SW   DIST   DENS                          C
   cm   cm3/cm3    cm3/cm3    cm3/cm3         g/cm3         ugN/g  ugN/g     %
-------------------------------------------------------------------------------
  0-  5 0.070 0.270 0.390 0.200 0.270   1.00   1.61   7.10   0.00   0.00   0.70
  5- 15 0.070 0.270 0.390 0.200 0.270   1.00   1.61   7.10   0.00   0.00   0.70
 15- 30 0.070 0.250 0.350 0.180 0.250   0.60   1.61   7.10   0.00   0.00   0.58
 30- 45 0.070 0.250 0.350 0.180 0.250   0.60   1.61   7.10   0.00   0.00   0.58
 45- 60 0.070 0.220 0.320 0.150 0.220   0.30   1.61   7.10   0.00   0.00   0.58
 60- 75 0.070 0.220 0.320 0.150 0.220   0.30   1.61   7.10   0.00   0.00   0.58
 75-105 0.070 0.200 0.300 0.130 0.200   0.22   1.61   7.10   0.00   0.00   0.43
105-135 0.070 0.195 0.285 0.125 0.195   0.22   1.62   7.10   0.00   0.00   0.26
135-165 0.070 0.180 0.280 0.110 0.180   0.22   1.62   7.10   0.00   0.00   0.12
165-195 0.070 0.220 0.310 0.150 0.220   0.22   1.62   7.10   0.00   0.00   0.04

TOT-195  13.6  42.0  61.2  28.3  42.0  <--cm   -  kg/ha-->    0.0    0.0 114114
SOIL ALBEDO    : 0.21      EVAPORATION LIMIT : 6.00         MIN. FACTOR  : 1.00
RUNOFF CURVE # :60.00      DRAINAGE RATE     : 0.60         FERT. FACTOR : 1.00

 Wheat            CULTIVAR: IB1015-MARIS FUNDIN       ECOTYPE: DFAULT


*SIMULATED CROP AND SOIL STATUS AT MAIN DEVELOPMENT STAGES

 RUN NO.     1     Sim1                    

        CROP GROWTH     BIOMASS         LEAF   CROP N     STRESS      STRESS                                           
   DATE  AGE STAGE        kg/ha    LAI   NUM  kg/ha  %   H2O  Nitr Phos1 Phos2  RSTG                                   
 ------  --- ----------   -----  -----  ----  ---  ---  ----  ----  ----  ----  ----                                   
 15 OCT    0 Fallow           0   0.00   0.0    0  0.0  0.00  0.00  0.00  0.00     8
 15 OCT    0 Sowing           0   0.00   0.0    0  0.0  0.00  0.00  0.00  0.00     8
 17 OCT    2 Germinate        0   0.00   0.0    0  0.0  0.00  0.00  0.00  0.00     9
 23 OCT    8 Emergence       55   0.05   0.0    2  4.2  0.00  0.00  0.00  0.00     1
  4 APR  172 End Juveni    6379   6.76   0.0  153  2.4  0.67  0.00  0.00  0.00     2
 28 APR  196 End Veg       9121   6.86   0.0  226  2.5  0.76  0.00  0.00  0.00     3
 12 MAY  210 End Ear Gr   11720   6.40   0.0  264  2.3  0.67  0.00  0.00  0.00     4
 22 MAY  220 Beg Gr Fil   13565   5.62   0.0  266  2.0  0.71  0.00  0.00  0.00     5
 15 JUN  244 Maturity     16114   0.00   0.0  266  1.6  0.65  0.04  0.00  0.00     6
 16 JUN  245 Maturity     16114   0.00   0.0  266  1.6  0.43  1.00  0.00  0.00     7
 16 JUN  245 Harvest      16114   0.00   0.0  266  1.6  0.00  0.00  0.00  0.00     7


*MAIN GROWTH AND DEVELOPMENT VARIABLES

@     VARIABLE                                         SIMULATED     MEASURED
      --------                                         ---------     --------
      Anthesis day (dap)                                     210          -99
      Physiological maturity day (dap)                       245          -99
      Yield at harvest maturity (kg [dm]/ha)                4129          -99
      Number at maturity (no/m2)                           11162          -99
      Unit wt at maturity (g [dm]/unit)                     37.0          -99
      Number at maturity (no/unit)                          11.2          -99
      Tops weight at maturity (kg [dm]/ha)                 16114          -99
      By-product produced (stalk) at maturity (kg[dm]/ha       0          -99
      Leaf area index, maximum                              7.25          -99
      Harvest index at maturity                            0.256          -99
      Grain N at maturity (kg/ha)                             80          -99
      Tops N at maturity (kg/ha)                             266          -99
      Stem N at maturity (kg/ha)                               0          -99
      Grain N at maturity (%)                                1.9          -99
      Tops weight at anthesis (kg [dm]/ha)                     2          -99
      Tops N at anthesis (kg/ha)                              88          -99
      Leaf number per stem at maturity                      0.00          -99
      Emergence day (dap)                                      8          -99


*ENVIRONMENTAL AND STRESS FACTORS

 |-----Development Phase------|--------------------------------------Environment--------------------------------------|-----------------Stress-----------------|
                              |---------------Average--------------|-----Cumulative-----|--------Count of days--------|          (0=Min, 1=Max Stress)         |
                         Time  Temp  Temp  Temp Solar Photop                Evapo    Pot TMIN TMIN TMAX TMAX TMAX RAIN|----Water----|---Nitrogen--|-Phosphorus-|
                         Span   Max   Min  Mean   Rad  [day]    CO2   Rain  Trans     ET   <    <    >    >    >    >   Photo         Photo         Photo
                         days    ?    ?    ? MJ/m2     hr    ppm     mm     mm     mm  0?  2? 30? 32? 34?  0mm  synth Growth  synth Growth  synth Growth
----------------------------------------------------------------------------------------------------------------------------------------------------------------
 Emergence-End Juvenile   164  11.3  -0.1   5.6  10.4  10.50  380.0  328.8  121.6  250.9   86  106    0    0    0   29  0.553  0.666  0.001  0.001  0.000  0.000
 End Juvenil-Floral Init   24  18.7   6.8  12.8  15.4  12.93  380.0   68.3   37.4   67.2    0    3    0    0    0    6  0.662  0.765  0.000  0.000  0.000  0.000
 Floral Init-End Lf Grow   14  19.8   8.1  14.0  12.8  13.57  380.0  127.1   46.9   34.3    0    1    0    0    0    6  0.526  0.650  0.000  0.000  0.000  0.000
 End Lf Grth-Beg Grn Fil   10  22.5  10.5  16.5  14.7  13.90  380.0   29.0   34.5   29.4    0    0    0    0    0    7  0.593  0.729  0.000  0.000  0.000  0.000
 Grain Filling Phase       24  25.0  15.3  20.1  12.5  14.23  380.0  230.2   66.2   66.0    0    0    0    0    0   10  0.538  0.663  0.000  0.000  0.000  0.000
   
 Planting to Harvest      245  14.7   3.4   9.1  11.4  11.45  380.0  783.4  323.0  470.3   86  110    0    0    0   58  0.542  0.655  0.004  0.005  0.000  0.000
----------------------------------------------------------------------------------------------------------------------------------------------------------------


*Resource Productivity
 Growing season length: 245 days 

 Precipitation during growing season       783.4 mm[rain]
   Dry Matter Productivity                  2.06 kg[DM]/m3[rain]          =   20.6 kg[DM]/ha per mm[rain]
   Yield Productivity                       0.53 kg[grain yield]/m3[rain] =    5.3 kg[yield]/ha per mm[rain]

 Evapotranspiration during growing season  323.0 mm[ET]
   Dry Matter Productivity                  4.99 kg[DM]/m3[ET]            =   49.9 kg[DM]/ha per mm[ET]
   Yield Productivity                       1.28 kg[grain yield]/m3[ET]   =   12.8 kg[yield]/ha per mm[ET]

 Transpiration during growing season       248.9 mm[EP]
   Dry Matter Productivity                  6.47 kg[DM]/m3[EP]            =   64.7 kg[DM]/ha per mm[EP]
   Yield Productivity                       1.66 kg[grain yield]/m3[EP]   =   16.6 kg[yield]/ha per mm[EP]

 N applied during growing season            380. kg[N applied]/ha
   Dry Matter Productivity                  42.4 kg[DM]/kg[N applied]
   Yield Productivity                       10.9 kg[yield]/kg[N applied]

 N uptake during growing season              342 kg[N uptake]/ha
   Dry Matter Productivity                  47.1 kg[DM]/kg[N uptake]
   Yield Productivity                       12.1 kg[yield]/kg[N uptake]

--------------------------------------------------------------------------------------------------------------

                     Wheat YIELD :     4129 kg/ha    [Dry weight] 

**************************************************************************************************************

*DSSAT Cropping System Model Ver. 4.8.0.027 -release  MAR 20, 2023 17:19:16

*RUN   2        : Sim1                      WHAPS048 TEST2023    1
 MODEL          : WHAPS048 - Wheat
 EXPERIMENT     : TEST2023 SN TEST-KBAD
 DATA PATH      : C:\DSSAT48\Seasonal\
 TREATMENT  1   : Sim1                      WHAPS048


 CROP           : Wheat            CULTIVAR : MARIS FUNDIN     ECOTYPE :DFAULT
 STARTING DATE  : OCT 14 1976
 PLANTING DATE  : OCT 14 1976       LANTS/m2 :  1000.0    ROW SPACING :  10.cm
 WEATHER        : JINJ7601
 SOIL           : CORD860001     TEXTURE : SALO  - DEFAULT - DEEP SANDY LOAM
 SOIL INITIAL C : DEPTH:195cm EXTR. H2O:283.5mm  NO3:  0.0kg/ha  NH4:  0.0kg/ha
 WATER BALANCE  : IRRIGATE ON REPORTED DAP
 IRRIGATION     :        0 mm IN     0 APPLICATIONS
 NITROGEN BAL.  : SOIL-N & N-UPTAKE SIMULATION; NO N-FIXATION
 N-FERTILIZER   :      380 kg/ha IN     2 APPLICATIONS
 RESIDUE/MANURE : INITIAL :     0 kg/ha ;       0 kg/ha IN     0 APPLICATIONS
 ENVIRONM. OPT. : DAYL=    0.00  SRAD=    0.00  TMAX=    0.00  TMIN=    0.00
                  RAIN=    0.00  CO2 =    0.00  DEW =    0.00  WIND=    0.00
 SIMULATION OPT : WATER   :Y  NITROGEN:Y  N-FIX:N  PHOSPH :N  PESTS  :N
                  PHOTO   :C  ET      :R  INFIL:S  HYDROL :R  SOM    :G
                  CO2     :D  NSWIT   :1  EVAP :R  SOIL   :2  STEMP  :D
 MANAGEMENT OPT : PLANTING:R  IRRIG   :D  FERT :D  RESIDUE:R  HARVEST:M
                  WEATHER :M  TILLAGE :Y

*SUMMARY OF SOIL AND GENETIC INPUT PARAMETERS

   SOIL LOWER UPPER   SAT  EXTR  INIT   ROOT   BULK     pH    NO3    NH4    ORG
  DEPTH LIMIT LIMIT    SW    SW    SW   DIST   DENS                          C
   cm   cm3/cm3    cm3/cm3    cm3/cm3         g/cm3         ugN/g  ugN/g     %
-------------------------------------------------------------------------------
  0-  5 0.070 0.270 0.390 0.200 0.270   1.00   1.61   7.10   0.00   0.00   0.70
  5- 15 0.070 0.270 0.390 0.200 0.270   1.00   1.61   7.10   0.00   0.00   0.70
 15- 30 0.070 0.250 0.350 0.180 0.250   0.60   1.61   7.10   0.00   0.00   0.58
 30- 45 0.070 0.250 0.350 0.180 0.250   0.60   1.61   7.10   0.00   0.00   0.58
 45- 60 0.070 0.220 0.320 0.150 0.220   0.30   1.61   7.10   0.00   0.00   0.58
 60- 75 0.070 0.220 0.320 0.150 0.220   0.30   1.61   7.10   0.00   0.00   0.58
 75-105 0.070 0.200 0.300 0.130 0.200   0.22   1.61   7.10   0.00   0.00   0.43
105-135 0.070 0.195 0.285 0.125 0.195   0.22   1.62   7.10   0.00   0.00   0.26
135-165 0.070 0.180 0.280 0.110 0.180   0.22   1.62   7.10   0.00   0.00   0.12
165-195 0.070 0.220 0.310 0.150 0.220   0.22   1.62   7.10   0.00   0.00   0.04

TOT-195  13.6  42.0  61.2  28.3  42.0  <--cm   -  kg/ha-->    0.0    0.0 114114
SOIL ALBEDO    : 0.21      EVAPORATION LIMIT : 6.00         MIN. FACTOR  : 1.00
RUNOFF CURVE # :60.00      DRAINAGE RATE     : 0.60         FERT. FACTOR : 1.00

 Wheat            CULTIVAR: IB1015-MARIS FUNDIN       ECOTYPE: DFAULT


*SIMULATED CROP AND SOIL STATUS AT MAIN DEVELOPMENT STAGES

 RUN NO.     2     Sim1                    

        CROP GROWTH     BIOMASS         LEAF   CROP N     STRESS      STRESS                                           
   DATE  AGE STAGE        kg/ha    LAI   NUM  kg/ha  %   H2O  Nitr Phos1 Phos2  RSTG                                   
 ------  --- ----------   -----  -----  ----  ---  ---  ----  ----  ----  ----  ----                                   
 14 OCT    0 Fallow           0   0.00   0.0    0  0.0  0.00  0.00  0.00  0.00     8
 14 OCT    0 Sowing           0   0.00   0.0    0  0.0  0.00  0.00  0.00  0.00     8
 16 OCT    2 Germinate        0   0.00   0.0    0  0.0  0.00  0.00  0.00  0.00     9
 21 OCT    7 Emergence       55   0.05   0.0    2  4.5  0.00  0.01  0.00  0.00     1
 13 APR  181 End Juveni    6772   6.96   0.0  177  2.6  0.62  0.00  0.00  0.00     2
  3 MAY  201 End Veg       9953   7.51   0.0  264  2.6  0.67  0.00  0.00  0.00     3
 14 MAY  212 End Ear Gr   12229   7.02   0.0  294  2.4  0.71  0.00  0.00  0.00     4
 24 MAY  222 Beg Gr Fil   14335   6.09   0.0  294  2.1  0.74  0.00  0.00  0.00     5
 15 JUN  244 Maturity     16772   0.16   0.0  294  1.8  0.66  0.05  0.00  0.00     6
 16 JUN  245 Maturity     16772   0.16   0.0  294  1.8  0.31  1.00  0.00  0.00     7
 16 JUN  245 Harvest      16772   0.16   0.0  294  1.8  0.00  0.00  0.00  0.00     7


*MAIN GROWTH AND DEVELOPMENT VARIABLES

@     VARIABLE                                         SIMULATED     MEASURED
      --------                                         ---------     --------
      Anthesis day (dap)                                     212          -99
      Physiological maturity day (dap)                       245          -99
      Yield at harvest maturity (kg [dm]/ha)                4237          -99
      Number at maturity (no/m2)                           11507          -99
      Unit wt at maturity (g [dm]/unit)                     36.8          -99
      Number at maturity (no/unit)                          11.5          -99
      Tops weight at maturity (kg [dm]/ha)                 16772          -99
      By-product produced (stalk) at maturity (kg[dm]/ha       0          -99
      Leaf area index, maximum                              7.59          -99
      Harvest index at maturity                            0.253          -99
      Grain N at maturity (kg/ha)                             80          -99
      Tops N at maturity (kg/ha)                             294          -99
      Stem N at maturity (kg/ha)                               0          -99
      Grain N at maturity (%)                                1.9          -99
      Tops weight at anthesis (kg [dm]/ha)                     2          -99
      Tops N at anthesis (kg/ha)                              88          -99
      Leaf number per stem at maturity                      0.00          -99
      Emergence day (dap)                                      7          -99


*ENVIRONMENTAL AND STRESS FACTORS

 |-----Development Phase------|--------------------------------------Environment--------------------------------------|-----------------Stress-----------------|
                              |---------------Average--------------|-----Cumulative-----|--------Count of days--------|          (0=Min, 1=Max Stress)         |
                         Time  Temp  Temp  Temp Solar Photop                Evapo    Pot TMIN TMIN TMAX TMAX TMAX RAIN|----Water----|---Nitrogen--|-Phosphorus-|
                         Span   Max   Min  Mean   Rad  [day]    CO2   Rain  Trans     ET   <    <    >    >    >    >   Photo         Photo         Photo
                         days    ?    ?    ? MJ/m2     hr    ppm     mm     mm     mm  0?  2? 30? 32? 34?  0mm  synth Growth  synth Growth  synth Growth
----------------------------------------------------------------------------------------------------------------------------------------------------------------
 Emergence-End Juvenile   174  10.3  -1.5   4.4   9.5  10.59  380.0  281.6  142.5  229.2  104  119    0    0    0   32  0.488  0.613  0.001  0.002  0.000  0.000
 End Juvenil-Floral Init   20  20.4   9.4  14.9  14.4  13.15  380.0  150.0   47.0   55.5    0    0    0    0    0    8  0.590  0.669  0.000  0.000  0.000  0.000
 Floral Init-End Lf Grow   11  24.1  11.6  17.9  18.0  13.65  380.0    6.4   54.8   40.9    0    0    0    0    0    2  0.715  0.780  0.000  0.000  0.000  0.000
 End Lf Grth-Beg Grn Fil   10  24.0  11.7  17.8  16.9  13.93  380.0   40.5   43.8   34.8    0    0    0    0    0    3  0.633  0.703  0.000  0.000  0.000  0.000
 Grain Filling Phase       22  25.2  16.5  20.9  12.9  14.23  380.0  167.2   58.0   62.8    0    0    0    0    0    9  0.547  0.668  0.000  0.000  0.000  0.000
   
 Planting to Harvest      245  14.1   2.5   8.3  11.0  11.43  380.0  661.3  362.8  442.9  104  119    0    0    0   56  0.502  0.615  0.004  0.005  0.000  0.000
----------------------------------------------------------------------------------------------------------------------------------------------------------------


*Resource Productivity
 Growing season length: 245 days 

 Precipitation during growing season       661.3 mm[rain]
   Dry Matter Productivity                  2.54 kg[DM]/m3[rain]          =   25.4 kg[DM]/ha per mm[rain]
   Yield Productivity                       0.64 kg[grain yield]/m3[rain] =    6.4 kg[yield]/ha per mm[rain]

 Evapotranspiration during growing season  362.8 mm[ET]
   Dry Matter Productivity                  4.62 kg[DM]/m3[ET]            =   46.2 kg[DM]/ha per mm[ET]
   Yield Productivity                       1.17 kg[grain yield]/m3[ET]   =   11.7 kg[yield]/ha per mm[ET]

 Transpiration during growing season       281.2 mm[EP]
   Dry Matter Productivity                  5.97 kg[DM]/m3[EP]            =   59.7 kg[DM]/ha per mm[EP]
   Yield Productivity                       1.51 kg[grain yield]/m3[EP]   =   15.1 kg[yield]/ha per mm[EP]

 N applied during growing season            380. kg[N applied]/ha
   Dry Matter Productivity                  44.1 kg[DM]/kg[N applied]
   Yield Productivity                       11.1 kg[yield]/kg[N applied]

 N uptake during growing season              369 kg[N uptake]/ha
   Dry Matter Productivity                  45.5 kg[DM]/kg[N uptake]
   Yield Productivity                       11.5 kg[yield]/kg[N uptake]

--------------------------------------------------------------------------------------------------------------

                     Wheat YIELD :     4237 kg/ha    [Dry weight] 

**************************************************************************************************************

*DSSAT Cropping System Model Ver. 4.8.0.027 -release  MAR 20, 2023 17:19:16

*RUN   3        : Sim1                      WHAPS048 TEST2023    1
 MODEL          : WHAPS048 - Wheat
 EXPERIMENT     : TEST2023 SN TEST-KBAD
 DATA PATH      : C:\DSSAT48\Seasonal\
 TREATMENT  1   : Sim1                      WHAPS048


 CROP           : Wheat            CULTIVAR : MARIS FUNDIN     ECOTYPE :DFAULT
 STARTING DATE  : OCT 15 1977
 PLANTING DATE  : OCT 15 1977       LANTS/m2 :  1000.0    ROW SPACING :  10.cm
 WEATHER        : JINJ7701
 SOIL           : CORD860001     TEXTURE : SALO  - DEFAULT - DEEP SANDY LOAM
 SOIL INITIAL C : DEPTH:195cm EXTR. H2O:283.5mm  NO3:  0.0kg/ha  NH4:  0.0kg/ha
 WATER BALANCE  : IRRIGATE ON REPORTED DAP
 IRRIGATION     :        0 mm IN     0 APPLICATIONS
 NITROGEN BAL.  : SOIL-N & N-UPTAKE SIMULATION; NO N-FIXATION
 N-FERTILIZER   :      380 kg/ha IN     2 APPLICATIONS
 RESIDUE/MANURE : INITIAL :     0 kg/ha ;       0 kg/ha IN     0 APPLICATIONS
 ENVIRONM. OPT. : DAYL=    0.00  SRAD=    0.00  TMAX=    0.00  TMIN=    0.00
                  RAIN=    0.00  CO2 =    0.00  DEW =    0.00  WIND=    0.00
 SIMULATION OPT : WATER   :Y  NITROGEN:Y  N-FIX:N  PHOSPH :N  PESTS  :N
                  PHOTO   :C  ET      :R  INFIL:S  HYDROL :R  SOM    :G
                  CO2     :D  NSWIT   :1  EVAP :R  SOIL   :2  STEMP  :D
 MANAGEMENT OPT : PLANTING:R  IRRIG   :D  FERT :D  RESIDUE:R  HARVEST:M
                  WEATHER :M  TILLAGE :Y

*SUMMARY OF SOIL AND GENETIC INPUT PARAMETERS

   SOIL LOWER UPPER   SAT  EXTR  INIT   ROOT   BULK     pH    NO3    NH4    ORG
  DEPTH LIMIT LIMIT    SW    SW    SW   DIST   DENS                          C
   cm   cm3/cm3    cm3/cm3    cm3/cm3         g/cm3         ugN/g  ugN/g     %
-------------------------------------------------------------------------------
  0-  5 0.070 0.270 0.390 0.200 0.270   1.00   1.61   7.10   0.00   0.00   0.70
  5- 15 0.070 0.270 0.390 0.200 0.270   1.00   1.61   7.10   0.00   0.00   0.70
 15- 30 0.070 0.250 0.350 0.180 0.250   0.60   1.61   7.10   0.00   0.00   0.58
 30- 45 0.070 0.250 0.350 0.180 0.250   0.60   1.61   7.10   0.00   0.00   0.58
 45- 60 0.070 0.220 0.320 0.150 0.220   0.30   1.61   7.10   0.00   0.00   0.58
 60- 75 0.070 0.220 0.320 0.150 0.220   0.30   1.61   7.10   0.00   0.00   0.58
 75-105 0.070 0.200 0.300 0.130 0.200   0.22   1.61   7.10   0.00   0.00   0.43
105-135 0.070 0.195 0.285 0.125 0.195   0.22   1.62   7.10   0.00   0.00   0.26
135-165 0.070 0.180 0.280 0.110 0.180   0.22   1.62   7.10   0.00   0.00   0.12
165-195 0.070 0.220 0.310 0.150 0.220   0.22   1.62   7.10   0.00   0.00   0.04

TOT-195  13.6  42.0  61.2  28.3  42.0  <--cm   -  kg/ha-->    0.0    0.0 114114
SOIL ALBEDO    : 0.21      EVAPORATION LIMIT : 6.00         MIN. FACTOR  : 1.00
RUNOFF CURVE # :60.00      DRAINAGE RATE     : 0.60         FERT. FACTOR : 1.00

 Wheat            CULTIVAR: IB1015-MARIS FUNDIN       ECOTYPE: DFAULT


*SIMULATED CROP AND SOIL STATUS AT MAIN DEVELOPMENT STAGES

 RUN NO.     3     Sim1                    

        CROP GROWTH     BIOMASS         LEAF   CROP N     STRESS      STRESS                                           
   DATE  AGE STAGE        kg/ha    LAI   NUM  kg/ha  %   H2O  Nitr Phos1 Phos2  RSTG                                   
 ------  --- ----------   -----  -----  ----  ---  ---  ----  ----  ----  ----  ----                                   
 15 OCT    0 Fallow           0   0.00   0.0    0  0.0  0.00  0.00  0.00  0.00     8
 15 OCT    0 Sowing           0   0.00   0.0    0  0.0  0.00  0.00  0.00  0.00     8
 17 OCT    2 Germinate        0   0.00   0.0    0  0.0  0.00  0.00  0.00  0.00     9
 23 OCT    8 Emergence       53   0.05   0.0    2  4.3  0.17  0.00  0.00  0.00     1
  5 APR  172 End Juveni    6969   6.77   0.0  169  2.4  0.63  0.00  0.00  0.00     2
 27 APR  194 End Veg       9947   7.47   0.0  233  2.3  0.82  0.00  0.00  0.00     3
  9 MAY  206 End Ear Gr   12298   6.96   0.0  277  2.3  0.70  0.00  0.00  0.00     4
 18 MAY  215 Beg Gr Fil   14103   6.12   0.0  277  2.0  0.92  0.00  0.00  0.00     5
 10 JUN  238 Maturity     15671   0.00   0.0  277  1.8  0.86  0.04  0.00  0.00     6
 11 JUN  239 Maturity     15671   0.00   0.0  277  1.8  0.00  1.00  0.00  0.00     7
 11 JUN  239 Harvest      15671   0.00   0.0  277  1.8  0.00  0.00  0.00  0.00     7


*MAIN GROWTH AND DEVELOPMENT VARIABLES

@     VARIABLE                                         SIMULATED     MEASURED
      --------                                         ---------     --------
      Anthesis day (dap)                                     206          -99
      Physiological maturity day (dap)                       239          -99
      Yield at harvest maturity (kg [dm]/ha)                3151          -99
      Number at maturity (no/m2)                           11067          -99
      Unit wt at maturity (g [dm]/unit)                     28.5          -99
      Number at maturity (no/unit)                          11.1          -99
      Tops weight at maturity (kg [dm]/ha)                 15671          -99
      By-product produced (stalk) at maturity (kg[dm]/ha       0          -99
      Leaf area index, maximum                              7.57          -99
      Harvest index at maturity                            0.201          -99
      Grain N at maturity (kg/ha)                             66          -99
      Tops N at maturity (kg/ha)                             277          -99
      Stem N at maturity (kg/ha)                               0          -99
      Grain N at maturity (%)                                2.1          -99
      Tops weight at anthesis (kg [dm]/ha)                     2          -99
      Tops N at anthesis (kg/ha)                              88          -99
      Leaf number per stem at maturity                      0.00          -99
      Emergence day (dap)                                      8          -99


*ENVIRONMENTAL AND STRESS FACTORS

 |-----Development Phase------|--------------------------------------Environment--------------------------------------|-----------------Stress-----------------|
                              |---------------Average--------------|-----Cumulative-----|--------Count of days--------|          (0=Min, 1=Max Stress)         |
                         Time  Temp  Temp  Temp Solar Photop                Evapo    Pot TMIN TMIN TMAX TMAX TMAX RAIN|----Water----|---Nitrogen--|-Phosphorus-|
                         Span   Max   Min  Mean   Rad  [day]    CO2   Rain  Trans     ET   <    <    >    >    >    >   Photo         Photo         Photo
                         days    ?    ?    ? MJ/m2     hr    ppm     mm     mm     mm  0?  2? 30? 32? 34?  0mm  synth Growth  synth Growth  synth Growth
----------------------------------------------------------------------------------------------------------------------------------------------------------------
 Emergence-End Juvenile   164  11.9  -0.2   5.8   9.4  10.50  380.0  227.3  119.5  235.6  102  119    0    0    0   29  0.502  0.627  0.000  0.001  0.000  0.000
 End Juvenil-Floral Init   22  20.8   6.8  13.8  16.6  12.90  380.0   13.1   48.9   68.7    0    1    0    0    0    3  0.725  0.817  0.000  0.000  0.000  0.000
 Floral Init-End Lf Grow   12  23.8   9.1  16.4  15.9  13.48  380.0   23.2   56.4   38.4    0    0    0    0    0    2  0.679  0.768  0.000  0.000  0.000  0.000
 End Lf Grth-Beg Grn Fil    9  26.5   9.6  18.1  16.9  13.79  380.0    2.2   57.4   31.8    0    0    0    0    0    1  0.775  0.813  0.000  0.000  0.000  0.000
 Grain Filling Phase       23  28.1  12.8  20.4  17.9  14.14  380.0   13.4   47.4   90.2    0    0    8    1    0    5  0.902  0.906  0.000  0.000  0.000  0.000
   
 Planting to Harvest      239  15.9   2.9   9.4  11.6  11.37  380.0  373.7  345.6  489.5  102  120    8    1    0   41  0.561  0.662  0.004  0.005  0.000  0.000
----------------------------------------------------------------------------------------------------------------------------------------------------------------


*Resource Productivity
 Growing season length: 239 days 

 Precipitation during growing season       373.7 mm[rain]
   Dry Matter Productivity                  4.19 kg[DM]/m3[rain]          =   41.9 kg[DM]/ha per mm[rain]
   Yield Productivity                       0.84 kg[grain yield]/m3[rain] =    8.4 kg[yield]/ha per mm[rain]

 Evapotranspiration during growing season  345.6 mm[ET]
   Dry Matter Productivity                  4.53 kg[DM]/m3[ET]            =   45.3 kg[DM]/ha per mm[ET]
   Yield Productivity                       0.91 kg[grain yield]/m3[ET]   =    9.1 kg[yield]/ha per mm[ET]

 Transpiration during growing season       288.1 mm[EP]
   Dry Matter Productivity                  5.44 kg[DM]/m3[EP]            =   54.4 kg[DM]/ha per mm[EP]
   Yield Productivity                       1.09 kg[grain yield]/m3[EP]   =   10.9 kg[yield]/ha per mm[EP]

 N applied during growing season            380. kg[N applied]/ha
   Dry Matter Productivity                  41.2 kg[DM]/kg[N applied]
   Yield Productivity                        8.3 kg[yield]/kg[N applied]

 N uptake during growing season              354 kg[N uptake]/ha
   Dry Matter Productivity                  44.3 kg[DM]/kg[N uptake]
   Yield Productivity                        8.9 kg[yield]/kg[N uptake]

--------------------------------------------------------------------------------------------------------------

                     Wheat YIELD :     3151 kg/ha    [Dry weight] 

**************************************************************************************************************

*DSSAT Cropping System Model Ver. 4.8.0.027 -release  MAR 20, 2023 17:19:16

*RUN   4        : Sim1                      WHAPS048 TEST2023    1
 MODEL          : WHAPS048 - Wheat
 EXPERIMENT     : TEST2023 SN TEST-KBAD
 DATA PATH      : C:\DSSAT48\Seasonal\
 TREATMENT  1   : Sim1                      WHAPS048


 CROP           : Wheat            CULTIVAR : MARIS FUNDIN     ECOTYPE :DFAULT
 STARTING DATE  : OCT 15 1978
 PLANTING DATE  : OCT 15 1978       LANTS/m2 :  1000.0    ROW SPACING :  10.cm
 WEATHER        : JINJ7801
 SOIL           : CORD860001     TEXTURE : SALO  - DEFAULT - DEEP SANDY LOAM
 SOIL INITIAL C : DEPTH:195cm EXTR. H2O:283.5mm  NO3:  0.0kg/ha  NH4:  0.0kg/ha
 WATER BALANCE  : IRRIGATE ON REPORTED DAP
 IRRIGATION     :        0 mm IN     0 APPLICATIONS
 NITROGEN BAL.  : SOIL-N & N-UPTAKE SIMULATION; NO N-FIXATION
 N-FERTILIZER   :      380 kg/ha IN     2 APPLICATIONS
 RESIDUE/MANURE : INITIAL :     0 kg/ha ;       0 kg/ha IN     0 APPLICATIONS
 ENVIRONM. OPT. : DAYL=    0.00  SRAD=    0.00  TMAX=    0.00  TMIN=    0.00