*SIMULATION OVERVIEW FILE

*DSSAT Cropping System Model Ver. 4.8.0.027 -release  MAR 20, 2023 17:24:45

*RUN   1        : Sim1                      WHAPS048 TEST2023    1
 MODEL          : WHAPS048 - Wheat
 EXPERIMENT     : TEST2023 SN TEST-KBAD
 DATA PATH      : C:\DSSAT48\Seasonal\
 TREATMENT  1   : Sim1                      WHAPS048


 CROP           : Wheat            CULTIVAR : MARIS FUNDIN     ECOTYPE :DFAULT
 STARTING DATE  : OCT 15 1975
 PLANTING DATE  : OCT 15 1975       LANTS/m2 :  1000.0    ROW SPACING :  10.cm
 WEATHER        : MIRY7501
 SOIL           : CORD860001     TEXTURE : SALO  - DEFAULT - DEEP SANDY LOAM
 SOIL INITIAL C : DEPTH:195cm EXTR. H2O:283.5mm  NO3:  0.0kg/ha  NH4:  0.0kg/ha
 WATER BALANCE  : IRRIGATE ON REPORTED DAP
 IRRIGATION     :        0 mm IN     0 APPLICATIONS
 NITROGEN BAL.  : SOIL-N & N-UPTAKE SIMULATION; NO N-FIXATION
 N-FERTILIZER   :      380 kg/ha IN     2 APPLICATIONS
 RESIDUE/MANURE : INITIAL :     0 kg/ha ;       0 kg/ha IN     0 APPLICATIONS
 ENVIRONM. OPT. : DAYL=    0.00  SRAD=    0.00  TMAX=    0.00  TMIN=    0.00
                  RAIN=    0.00  CO2 =    0.00  DEW =    0.00  WIND=    0.00
 SIMULATION OPT : WATER   :Y  NITROGEN:Y  N-FIX:N  PHOSPH :N  PESTS  :N
                  PHOTO   :C  ET      :R  INFIL:S  HYDROL :R  SOM    :G
                  CO2     :D  NSWIT   :1  EVAP :R  SOIL   :2  STEMP  :D
 MANAGEMENT OPT : PLANTING:R  IRRIG   :D  FERT :D  RESIDUE:R  HARVEST:M
                  WEATHER :M  TILLAGE :Y

*SUMMARY OF SOIL AND GENETIC INPUT PARAMETERS

   SOIL LOWER UPPER   SAT  EXTR  INIT   ROOT   BULK     pH    NO3    NH4    ORG
  DEPTH LIMIT LIMIT    SW    SW    SW   DIST   DENS                          C
   cm   cm3/cm3    cm3/cm3    cm3/cm3         g/cm3         ugN/g  ugN/g     %
-------------------------------------------------------------------------------
  0-  5 0.070 0.270 0.390 0.200 0.270   1.00   1.61   7.10   0.00   0.00   0.70
  5- 15 0.070 0.270 0.390 0.200 0.270   1.00   1.61   7.10   0.00   0.00   0.70
 15- 30 0.070 0.250 0.350 0.180 0.250   0.60   1.61   7.10   0.00   0.00   0.58
 30- 45 0.070 0.250 0.350 0.180 0.250   0.60   1.61   7.10   0.00   0.00   0.58
 45- 60 0.070 0.220 0.320 0.150 0.220   0.30   1.61   7.10   0.00   0.00   0.58
 60- 75 0.070 0.220 0.320 0.150 0.220   0.30   1.61   7.10   0.00   0.00   0.58
 75-105 0.070 0.200 0.300 0.130 0.200   0.22   1.61   7.10   0.00   0.00   0.43
105-135 0.070 0.195 0.285 0.125 0.195   0.22   1.62   7.10   0.00   0.00   0.26
135-165 0.070 0.180 0.280 0.110 0.180   0.22   1.62   7.10   0.00   0.00   0.12
165-195 0.070 0.220 0.310 0.150 0.220   0.22   1.62   7.10   0.00   0.00   0.04

TOT-195  13.6  42.0  61.2  28.3  42.0  <--cm   -  kg/ha-->    0.0    0.0 114114
SOIL ALBEDO    : 0.21      EVAPORATION LIMIT : 6.00         MIN. FACTOR  : 1.00
RUNOFF CURVE # :60.00      DRAINAGE RATE     : 0.60         FERT. FACTOR : 1.00

 Wheat            CULTIVAR: IB1015-MARIS FUNDIN       ECOTYPE: DFAULT


*SIMULATED CROP AND SOIL STATUS AT MAIN DEVELOPMENT STAGES

 RUN NO.     1     Sim1                    

        CROP GROWTH     BIOMASS         LEAF   CROP N     STRESS      STRESS                                           
   DATE  AGE STAGE        kg/ha    LAI   NUM  kg/ha  %   H2O  Nitr Phos1 Phos2  RSTG                                   
 ------  --- ----------   -----  -----  ----  ---  ---  ----  ----  ----  ----  ----                                   
 15 OCT    0 Fallow           0   0.00   0.0    0  0.0  0.00  0.00  0.00  0.00     8
 15 OCT    0 Sowing           0   0.00   0.0    0  0.0  0.00  0.00  0.00  0.00     8
 17 OCT    2 Germinate        0   0.00   0.0    0  0.0  0.00  0.00  0.00  0.00     9
 23 OCT    8 Emergence       53   0.05   0.0    2  4.3  0.00  0.00  0.00  0.00     1
  9 APR  177 End Juveni    6892   6.88   0.0  164  2.4  0.71  0.00  0.00  0.00     2
  2 MAY  200 End Veg      10245   7.62   0.0  254  2.5  0.75  0.00  0.00  0.00     3
 16 MAY  214 End Ear Gr   14292   7.09   0.0  309  2.2  0.84  0.00  0.00  0.00     4
 26 MAY  224 Beg Gr Fil   16806   6.16   0.0  311  1.9  0.83  0.00  0.00  0.00     5
 18 JUN  247 Maturity     20663   0.16   0.0  311  1.5  0.83  0.04  0.00  0.00     6
 19 JUN  248 Maturity     20663   0.16   0.0  311  1.5  0.00  1.00  0.00  0.00     7
 19 JUN  248 Harvest      20663   0.16   0.0  311  1.5  0.00  0.00  0.00  0.00     7


*MAIN GROWTH AND DEVELOPMENT VARIABLES

@     VARIABLE                                         SIMULATED     MEASURED
      --------                                         ---------     --------
      Anthesis day (dap)                                     214          -99
      Physiological maturity day (dap)                       248          -99
      Yield at harvest maturity (kg [dm]/ha)                6095          -99
      Number at maturity (no/m2)                           15674          -99
      Unit wt at maturity (g [dm]/unit)                     38.9          -99
      Number at maturity (no/unit)                          15.7          -99
      Tops weight at maturity (kg [dm]/ha)                 20663          -99
      By-product produced (stalk) at maturity (kg[dm]/ha       0          -99
      Leaf area index, maximum                              7.89          -99
      Harvest index at maturity                            0.295          -99
      Grain N at maturity (kg/ha)                            115          -99
      Tops N at maturity (kg/ha)                             311          -99
      Stem N at maturity (kg/ha)                               0          -99
      Grain N at maturity (%)                                1.9          -99
      Tops weight at anthesis (kg [dm]/ha)                     2          -99
      Tops N at anthesis (kg/ha)                              88          -99
      Leaf number per stem at maturity                      0.00          -99
      Emergence day (dap)                                      8          -99


*ENVIRONMENTAL AND STRESS FACTORS

 |-----Development Phase------|--------------------------------------Environment--------------------------------------|-----------------Stress-----------------|
                              |---------------Average--------------|-----Cumulative-----|--------Count of days--------|          (0=Min, 1=Max Stress)         |
                         Time  Temp  Temp  Temp Solar Photop                Evapo    Pot TMIN TMIN TMAX TMAX TMAX RAIN|----Water----|---Nitrogen--|-Phosphorus-|
                         Span   Max   Min  Mean   Rad  [day]    CO2   Rain  Trans     ET   <    <    >    >    >    >   Photo         Photo         Photo
                         days    ?    ?    ? MJ/m2     hr    ppm     mm     mm     mm  0?  2? 30? 32? 34?  0mm  synth Growth  synth Growth  synth Growth
----------------------------------------------------------------------------------------------------------------------------------------------------------------
 Emergence-End Juvenile   169  11.2  -1.1   5.1  12.6  10.54  380.0  262.4  129.3  309.6   95  111    0    0    0   26  0.603  0.708  0.001  0.001  0.000  0.000
 End Juvenil-Floral Init   23  19.2   6.5  12.8  17.7  13.11  380.0  135.0   50.5   75.0    0    3    0    0    0   10  0.657  0.754  0.000  0.000  0.000  0.000
 Floral Init-End Lf Grow   14  21.5   6.8  14.1  25.6  13.71  380.0   21.1   79.7   68.5    0    1    0    0    0    3  0.760  0.840  0.000  0.000  0.000  0.000
 End Lf Grth-Beg Grn Fil   10  24.4  11.2  17.8  21.3  14.02  380.0   16.3   56.0   44.4    0    0    0    0    0    5  0.715  0.810  0.000  0.000  0.000  0.000
 Grain Filling Phase       23  25.5  14.6  20.0  22.7  14.30  380.0  219.9  102.8  113.4    0    0    1    0    0    9  0.798  0.866  0.000  0.000  0.000  0.000
   
 Planting to Harvest      248  14.7   2.4   8.6  15.1  11.48  380.0  658.0  433.6  636.0   95  115    1    0    0   54  0.617  0.713  0.004  0.005  0.000  0.000
----------------------------------------------------------------------------------------------------------------------------------------------------------------


*Resource Productivity
 Growing season length: 248 days 

 Precipitation during growing season       658.0 mm[rain]
   Dry Matter Productivity                  3.14 kg[DM]/m3[rain]          =   31.4 kg[DM]/ha per mm[rain]
   Yield Productivity                       0.93 kg[grain yield]/m3[rain] =    9.3 kg[yield]/ha per mm[rain]

 Evapotranspiration during growing season  433.6 mm[ET]
   Dry Matter Productivity                  4.77 kg[DM]/m3[ET]            =   47.7 kg[DM]/ha per mm[ET]
   Yield Productivity                       1.41 kg[grain yield]/m3[ET]   =   14.1 kg[yield]/ha per mm[ET]

 Transpiration during growing season       363.7 mm[EP]
   Dry Matter Productivity                  5.68 kg[DM]/m3[EP]            =   56.8 kg[DM]/ha per mm[EP]
   Yield Productivity                       1.68 kg[grain yield]/m3[EP]   =   16.8 kg[yield]/ha per mm[EP]

 N applied during growing season            380. kg[N applied]/ha
   Dry Matter Productivity                  54.4 kg[DM]/kg[N applied]
   Yield Productivity                       16.0 kg[yield]/kg[N applied]

 N uptake during growing season              401 kg[N uptake]/ha
   Dry Matter Productivity                  51.5 kg[DM]/kg[N uptake]
   Yield Productivity                       15.2 kg[yield]/kg[N uptake]

--------------------------------------------------------------------------------------------------------------

                     Wheat YIELD :     6095 kg/ha    [Dry weight] 

**************************************************************************************************************

*DSSAT Cropping System Model Ver. 4.8.0.027 -release  MAR 20, 2023 17:24:45

*RUN   2        : Sim1                      WHAPS048 TEST2023    1
 MODEL          : WHAPS048 - Wheat
 EXPERIMENT     : TEST2023 SN TEST-KBAD
 DATA PATH      : C:\DSSAT48\Seasonal\
 TREATMENT  1   : Sim1                      WHAPS048


 CROP           : Wheat            CULTIVAR : MARIS FUNDIN     ECOTYPE :DFAULT
 STARTING DATE  : OCT 14 1976
 PLANTING DATE  : OCT 14 1976       LANTS/m2 :  1000.0    ROW SPACING :  10.cm
 WEATHER        : MIRY7601
 SOIL           : CORD860001     TEXTURE : SALO  - DEFAULT - DEEP SANDY LOAM
 SOIL INITIAL C : DEPTH:195cm EXTR. H2O:283.5mm  NO3:  0.0kg/ha  NH4:  0.0kg/ha
 WATER BALANCE  : IRRIGATE ON REPORTED DAP
 IRRIGATION     :        0 mm IN     0 APPLICATIONS
 NITROGEN BAL.  : SOIL-N & N-UPTAKE SIMULATION; NO N-FIXATION
 N-FERTILIZER   :      380 kg/ha IN     2 APPLICATIONS
 RESIDUE/MANURE : INITIAL :     0 kg/ha ;       0 kg/ha IN     0 APPLICATIONS
 ENVIRONM. OPT. : DAYL=    0.00  SRAD=    0.00  TMAX=    0.00  TMIN=    0.00
                  RAIN=    0.00  CO2 =    0.00  DEW =    0.00  WIND=    0.00
 SIMULATION OPT : WATER   :Y  NITROGEN:Y  N-FIX:N  PHOSPH :N  PESTS  :N
                  PHOTO   :C  ET      :R  INFIL:S  HYDROL :R  SOM    :G
                  CO2     :D  NSWIT   :1  EVAP :R  SOIL   :2  STEMP  :D
 MANAGEMENT OPT : PLANTING:R  IRRIG   :D  FERT :D  RESIDUE:R  HARVEST:M
                  WEATHER :M  TILLAGE :Y

*SUMMARY OF SOIL AND GENETIC INPUT PARAMETERS

   SOIL LOWER UPPER   SAT  EXTR  INIT   ROOT   BULK     pH    NO3    NH4    ORG
  DEPTH LIMIT LIMIT    SW    SW    SW   DIST   DENS                          C
   cm   cm3/cm3    cm3/cm3    cm3/cm3         g/cm3         ugN/g  ugN/g     %
-------------------------------------------------------------------------------
  0-  5 0.070 0.270 0.390 0.200 0.270   1.00   1.61   7.10   0.00   0.00   0.70
  5- 15 0.070 0.270 0.390 0.200 0.270   1.00   1.61   7.10   0.00   0.00   0.70
 15- 30 0.070 0.250 0.350 0.180 0.250   0.60   1.61   7.10   0.00   0.00   0.58
 30- 45 0.070 0.250 0.350 0.180 0.250   0.60   1.61   7.10   0.00   0.00   0.58
 45- 60 0.070 0.220 0.320 0.150 0.220   0.30   1.61   7.10   0.00   0.00   0.58
 60- 75 0.070 0.220 0.320 0.150 0.220   0.30   1.61   7.10   0.00   0.00   0.58
 75-105 0.070 0.200 0.300 0.130 0.200   0.22   1.61   7.10   0.00   0.00   0.43
105-135 0.070 0.195 0.285 0.125 0.195   0.22   1.62   7.10   0.00   0.00   0.26
135-165 0.070 0.180 0.280 0.110 0.180   0.22   1.62   7.10   0.00   0.00   0.12
165-195 0.070 0.220 0.310 0.150 0.220   0.22   1.62   7.10   0.00   0.00   0.04

TOT-195  13.6  42.0  61.2  28.3  42.0  <--cm   -  kg/ha-->    0.0    0.0 114114
SOIL ALBEDO    : 0.21      EVAPORATION LIMIT : 6.00         MIN. FACTOR  : 1.00
RUNOFF CURVE # :60.00      DRAINAGE RATE     : 0.60         FERT. FACTOR : 1.00

 Wheat            CULTIVAR: IB1015-MARIS FUNDIN       ECOTYPE: DFAULT


*SIMULATED CROP AND SOIL STATUS AT MAIN DEVELOPMENT STAGES

 RUN NO.     2     Sim1                    

        CROP GROWTH     BIOMASS         LEAF   CROP N     STRESS      STRESS                                           
   DATE  AGE STAGE        kg/ha    LAI   NUM  kg/ha  %   H2O  Nitr Phos1 Phos2  RSTG                                   
 ------  --- ----------   -----  -----  ----  ---  ---  ----  ----  ----  ----  ----                                   
 14 OCT    0 Fallow           0   0.00   0.0    0  0.0  0.00  0.00  0.00  0.00     8
 14 OCT    0 Sowing           0   0.00   0.0    0  0.0  0.00  0.00  0.00  0.00     8
 16 OCT    2 Germinate        0   0.00   0.0    0  0.0  0.00  0.00  0.00  0.00     9
 22 OCT    8 Emergence       51   0.05   0.0    2  4.8  0.17  0.00  0.00  0.00     1
 15 APR  183 End Juveni    6835   7.09   0.0  182  2.7  0.65  0.00  0.00  0.00     2
  5 MAY  203 End Veg      11165   8.42   0.0  268  2.4  0.78  0.00  0.00  0.00     3
 17 MAY  215 End Ear Gr   15538   7.84   0.0  302  1.9  0.90  0.00  0.00  0.00     4
 27 MAY  225 Beg Gr Fil   18088   6.75   0.0  305  1.7  0.96  0.00  0.00  0.00     5
 18 JUN  247 Maturity     21720   0.00   0.0  305  1.4  0.94  0.05  0.00  0.00     6
 19 JUN  248 Maturity     21720   0.00   0.0  305  1.4  0.84  1.00  0.00  0.00     7
 19 JUN  248 Harvest      21720   0.00   0.0  305  1.4  0.00  0.00  0.00  0.00     7


*MAIN GROWTH AND DEVELOPMENT VARIABLES

@     VARIABLE                                         SIMULATED     MEASURED
      --------                                         ---------     --------
      Anthesis day (dap)                                     215          -99
      Physiological maturity day (dap)                       248          -99
      Yield at harvest maturity (kg [dm]/ha)                6193          -99
      Number at maturity (no/m2)                           17293          -99
      Unit wt at maturity (g [dm]/unit)                     35.8          -99
      Number at maturity (no/unit)                          17.3          -99
      Tops weight at maturity (kg [dm]/ha)                 21720          -99
      By-product produced (stalk) at maturity (kg[dm]/ha       0          -99
      Leaf area index, maximum                              8.48          -99
      Harvest index at maturity                            0.285          -99
      Grain N at maturity (kg/ha)                            124          -99
      Tops N at maturity (kg/ha)                             305          -99
      Stem N at maturity (kg/ha)                               0          -99
      Grain N at maturity (%)                                2.0          -99
      Tops weight at anthesis (kg [dm]/ha)                     2          -99
      Tops N at anthesis (kg/ha)                              88          -99
      Leaf number per stem at maturity                      0.00          -99
      Emergence day (dap)                                      8          -99


*ENVIRONMENTAL AND STRESS FACTORS

 |-----Development Phase------|--------------------------------------Environment--------------------------------------|-----------------Stress-----------------|
                              |---------------Average--------------|-----Cumulative-----|--------Count of days--------|          (0=Min, 1=Max Stress)         |
                         Time  Temp  Temp  Temp Solar Photop                Evapo    Pot TMIN TMIN TMAX TMAX TMAX RAIN|----Water----|---Nitrogen--|-Phosphorus-|
                         Span   Max   Min  Mean   Rad  [day]    CO2   Rain  Trans     ET   <    <    >    >    >    >   Photo         Photo         Photo
                         days    ?    ?    ? MJ/m2     hr    ppm     mm     mm     mm  0?  2? 30? 32? 34?  0mm  synth Growth  synth Growth  synth Growth
----------------------------------------------------------------------------------------------------------------------------------------------------------------
 Emergence-End Juvenile   175  10.1  -2.8   3.7  13.1  10.60  380.0  229.9  159.8  311.4  110  130    0    0    0   32  0.537  0.652  0.001  0.002  0.000  0.000
 End Juvenil-Floral Init   20  20.7   9.0  14.8  23.1  13.23  380.0  126.1   71.8   88.9    0    0    0    0    0    9  0.694  0.780  0.000  0.000  0.000  0.000
 Floral Init-End Lf Grow   12  24.4   8.9  16.7  35.0  13.74  380.0   34.9   97.8   85.0    0    0    0    0    0    2  0.794  0.863  0.000  0.000  0.000  0.000
 End Lf Grth-Beg Grn Fil   10  24.2  11.5  17.9  31.4  14.02  380.0    4.3   72.7   64.9    0    0    0    0    0    2  0.928  0.953  0.000  0.000  0.000  0.000
 Grain Filling Phase       22  26.5  15.6  21.1  29.5  14.30  380.0  108.5   98.3  144.1    0    0    2    0    0    8  0.913  0.942  0.000  0.000  0.000  0.000
   
 Planting to Harvest      248  14.2   1.4   7.8  17.4  11.46  380.0  520.4  521.3  731.6  110  130    2    0    0   54  0.595  0.690  0.004  0.005  0.000  0.000
----------------------------------------------------------------------------------------------------------------------------------------------------------------


*Resource Productivity
 Growing season length: 248 days 

 Precipitation during growing season       520.4 mm[rain]
   Dry Matter Productivity                  4.17 kg[DM]/m3[rain]          =   41.7 kg[DM]/ha per mm[rain]
   Yield Productivity                       1.19 kg[grain yield]/m3[rain] =   11.9 kg[yield]/ha per mm[rain]

 Evapotranspiration during growing season  521.3 mm[ET]
   Dry Matter Productivity                  4.17 kg[DM]/m3[ET]            =   41.7 kg[DM]/ha per mm[ET]
   Yield Productivity                       1.19 kg[grain yield]/m3[ET]   =   11.9 kg[yield]/ha per mm[ET]

 Transpiration during growing season       427.8 mm[EP]
   Dry Matter Productivity                  5.08 kg[DM]/m3[EP]            =   50.8 kg[DM]/ha per mm[EP]
   Yield Productivity                       1.45 kg[grain yield]/m3[EP]   =   14.5 kg[yield]/ha per mm[EP]

 N applied during growing season            380. kg[N applied]/ha
   Dry Matter Productivity                  57.2 kg[DM]/kg[N applied]
   Yield Productivity                       16.3 kg[yield]/kg[N applied]

 N uptake during growing season              399 kg[N uptake]/ha
   Dry Matter Productivity                  54.4 kg[DM]/kg[N uptake]
   Yield Productivity                       15.5 kg[yield]/kg[N uptake]

--------------------------------------------------------------------------------------------------------------

                     Wheat YIELD :     6193 kg/ha    [Dry weight] 

**************************************************************************************************************

*DSSAT Cropping System Model Ver. 4.8.0.027 -release  MAR 20, 2023 17:24:45

*RUN   3        : Sim1                      WHAPS048 TEST2023    1
 MODEL          : WHAPS048 - Wheat
 EXPERIMENT     : TEST2023 SN TEST-KBAD
 DATA PATH      : C:\DSSAT48\Seasonal\
 TREATMENT  1   : Sim1                      WHAPS048


 CROP           : Wheat            CULTIVAR : MARIS FUNDIN     ECOTYPE :DFAULT
 STARTING DATE  : OCT 15 1977
 PLANTING DATE  : OCT 15 1977       LANTS/m2 :  1000.0    ROW SPACING :  10.cm
 WEATHER        : MIRY7701
 SOIL           : CORD860001     TEXTURE : SALO  - DEFAULT - DEEP SANDY LOAM
 SOIL INITIAL C : DEPTH:195cm EXTR. H2O:283.5mm  NO3:  0.0kg/ha  NH4:  0.0kg/ha
 WATER BALANCE  : IRRIGATE ON REPORTED DAP
 IRRIGATION     :        0 mm IN     0 APPLICATIONS
 NITROGEN BAL.  : SOIL-N & N-UPTAKE SIMULATION; NO N-FIXATION
 N-FERTILIZER   :      380 kg/ha IN     2 APPLICATIONS
 RESIDUE/MANURE : INITIAL :     0 kg/ha ;       0 kg/ha IN     0 APPLICATIONS
 ENVIRONM. OPT. : DAYL=    0.00  SRAD=    0.00  TMAX=    0.00  TMIN=    0.00
                  RAIN=    0.00  CO2 =    0.00  DEW =    0.00  WIND=    0.00
 SIMULATION OPT : WATER   :Y  NITROGEN:Y  N-FIX:N  PHOSPH :N  PESTS  :N
                  PHOTO   :C  ET      :R  INFIL:S  HYDROL :R  SOM    :G
                  CO2     :D  NSWIT   :1  EVAP :R  SOIL   :2  STEMP  :D
 MANAGEMENT OPT : PLANTING:R  IRRIG   :D  FERT :D  RESIDUE:R  HARVEST:M
                  WEATHER :M  TILLAGE :Y

*SUMMARY OF SOIL AND GENETIC INPUT PARAMETERS

   SOIL LOWER UPPER   SAT  EXTR  INIT   ROOT   BULK     pH    NO3    NH4    ORG
  DEPTH LIMIT LIMIT    SW    SW    SW   DIST   DENS                          C
   cm   cm3/cm3    cm3/cm3    cm3/cm3         g/cm3         ugN/g  ugN/g     %
-------------------------------------------------------------------------------
  0-  5 0.070 0.270 0.390 0.200 0.270   1.00   1.61   7.10   0.00   0.00   0.70
  5- 15 0.070 0.270 0.390 0.200 0.270   1.00   1.61   7.10   0.00   0.00   0.70
 15- 30 0.070 0.250 0.350 0.180 0.250   0.60   1.61   7.10   0.00   0.00   0.58
 30- 45 0.070 0.250 0.350 0.180 0.250   0.60   1.61   7.10   0.00   0.00   0.58
 45- 60 0.070 0.220 0.320 0.150 0.220   0.30   1.61   7.10   0.00   0.00   0.58
 60- 75 0.070 0.220 0.320 0.150 0.220   0.30   1.61   7.10   0.00   0.00   0.58
 75-105 0.070 0.200 0.300 0.130 0.200   0.22   1.61   7.10   0.00   0.00   0.43
105-135 0.070 0.195 0.285 0.125 0.195   0.22   1.62   7.10   0.00   0.00   0.26
135-165 0.070 0.180 0.280 0.110 0.180   0.22   1.62   7.10   0.00   0.00   0.12
165-195 0.070 0.220 0.310 0.150 0.220   0.22   1.62   7.10   0.00   0.00   0.04

TOT-195  13.6  42.0  61.2  28.3  42.0  <--cm   -  kg/ha-->    0.0    0.0 114114
SOIL ALBEDO    : 0.21      EVAPORATION LIMIT : 6.00         MIN. FACTOR  : 1.00
RUNOFF CURVE # :60.00      DRAINAGE RATE     : 0.60         FERT. FACTOR : 1.00

 Wheat            CULTIVAR: IB1015-MARIS FUNDIN       ECOTYPE: DFAULT


*SIMULATED CROP AND SOIL STATUS AT MAIN DEVELOPMENT STAGES

 RUN NO.     3     Sim1                    

        CROP GROWTH     BIOMASS         LEAF   CROP N     STRESS      STRESS                                           
   DATE  AGE STAGE        kg/ha    LAI   NUM  kg/ha  %   H2O  Nitr Phos1 Phos2  RSTG                                   
 ------  --- ----------   -----  -----  ----  ---  ---  ----  ----  ----  ----  ----                                   
 15 OCT    0 Fallow           0   0.00   0.0    0  0.0  0.00  0.00  0.00  0.00     8
 15 OCT    0 Sowing           0   0.00   0.0    0  0.0  0.00  0.00  0.00  0.00     8
 17 OCT    2 Germinate        0   0.00   0.0    0  0.0  0.00  0.00  0.00  0.00     9
 23 OCT    8 Emergence       54   0.05   0.0    2  4.4  0.00  0.00  0.00  0.00     1
  9 APR  176 End Juveni    7496   6.31   0.0  176  2.3  0.74  0.00  0.00  0.00     2
  1 MAY  198 End Veg      11470   8.93   0.0  257  2.2  0.86  0.00  0.00  0.00     3
 14 MAY  211 End Ear Gr   14743   8.23   0.0  281  1.9  0.93  0.00  0.00  0.00     4
 23 MAY  220 Beg Gr Fil   16006   6.81   0.0  290  1.8  0.97  0.00  0.00  0.00     5
 14 JUN  242 Maturity     17582   0.00   0.0  290  1.7  0.83  0.05  0.00  0.00     6
 15 JUN  243 Maturity     17582   0.00   0.0  290  1.7  0.00  1.00  0.00  0.00     7
 15 JUN  243 Harvest      17582   0.00   0.0  290  1.7  0.00  0.00  0.00  0.00     7


*MAIN GROWTH AND DEVELOPMENT VARIABLES

@     VARIABLE                                         SIMULATED     MEASURED
      --------                                         ---------     --------
      Anthesis day (dap)                                     211          -99
      Physiological maturity day (dap)                       243          -99
      Yield at harvest maturity (kg [dm]/ha)                2985          -99
      Number at maturity (no/m2)                           12705          -99
      Unit wt at maturity (g [dm]/unit)                     23.5          -99
      Number at maturity (no/unit)                          12.7          -99
      Tops weight at maturity (kg [dm]/ha)                 17582          -99
      By-product produced (stalk) at maturity (kg[dm]/ha       0          -99
      Leaf area index, maximum                              9.14          -99
      Harvest index at maturity                            0.170          -99
      Grain N at maturity (kg/ha)                             77          -99
      Tops N at maturity (kg/ha)                             290          -99
      Stem N at maturity (kg/ha)                               0          -99
      Grain N at maturity (%)                                2.6          -99
      Tops weight at anthesis (kg [dm]/ha)                     2          -99
      Tops N at anthesis (kg/ha)                              88          -99
      Leaf number per stem at maturity                      0.00          -99
      Emergence day (dap)                                      8          -99


*ENVIRONMENTAL AND STRESS FACTORS

 |-----Development Phase------|--------------------------------------Environment--------------------------------------|-----------------Stress-----------------|
                              |---------------Average--------------|-----Cumulative-----|--------Count of days--------|          (0=Min, 1=Max Stress)         |
                         Time  Temp  Temp  Temp Solar Photop                Evapo    Pot TMIN TMIN TMAX TMAX TMAX RAIN|----Water----|---Nitrogen--|-Phosphorus-|
                         Span   Max   Min  Mean   Rad  [day]    CO2   Rain  Trans     ET   <    <    >    >    >    >   Photo         Photo         Photo
                         days    ?    ?    ? MJ/m2     hr    ppm     mm     mm     mm  0?  2? 30? 32? 34?  0mm  synth Growth  synth Growth  synth Growth
----------------------------------------------------------------------------------------------------------------------------------------------------------------
 Emergence-End Juvenile   168  11.9  -1.0   5.4  16.9  10.53  380.0  208.8  144.9  422.5  106  126    0    0    0   32  0.627  0.732  0.001  0.001  0.000  0.000
 End Juvenil-Floral Init   22  21.7   5.8  13.8  28.4  13.05  380.0   40.1   77.2  118.5    0    2    0    0    0    6  0.787  0.859  0.000  0.000  0.000  0.000
 Floral Init-End Lf Grow   13  24.7   6.5  15.6  31.2  13.64  380.0    2.0   93.0   80.5    0    0    0    0    0    1  0.884  0.923  0.000  0.000  0.000  0.000
 End Lf Grth-Beg Grn Fil    9  27.2  10.2  18.7  28.0  13.94  380.0   20.5   36.4   53.4    0    0    1    0    0    2  0.957  0.972  0.000  0.000  0.000  0.000
 Grain Filling Phase       22  29.0  13.0  21.0  33.6  14.24  380.0  118.6   19.6  165.6    0    0    9    2    0    6  0.854  0.873  0.000  0.000  0.000  0.000
   
 Planting to Harvest      243  16.1   2.0   9.0  20.9  11.42  380.0  390.0  387.1  889.7  106  128   10    2    0   47  0.665  0.748  0.004  0.005  0.000  0.000
----------------------------------------------------------------------------------------------------------------------------------------------------------------


*Resource Productivity
 Growing season length: 243 days 

 Precipitation during growing season       390.0 mm[rain]
   Dry Matter Productivity                  4.51 kg[DM]/m3[rain]          =   45.1 kg[DM]/ha per mm[rain]
   Yield Productivity                       0.77 kg[grain yield]/m3[rain] =    7.7 kg[yield]/ha per mm[rain]

 Evapotranspiration during growing season  387.1 mm[ET]
   Dry Matter Productivity                  4.54 kg[DM]/m3[ET]            =   45.4 kg[DM]/ha per mm[ET]
   Yield Productivity                       0.77 kg[grain yield]/m3[ET]   =    7.7 kg[yield]/ha per mm[ET]

 Transpiration during growing season       323.8 mm[EP]
   Dry Matter Productivity                  5.43 kg[DM]/m3[EP]            =   54.3 kg[DM]/ha per mm[EP]
   Yield Productivity                       0.92 kg[grain yield]/m3[EP]   =    9.2 kg[yield]/ha per mm[EP]

 N applied during growing season            380. kg[N applied]/ha
   Dry Matter Productivity                  46.3 kg[DM]/kg[N applied]
   Yield Productivity                        7.9 kg[yield]/kg[N applied]

 N uptake during growing season              376 kg[N uptake]/ha
   Dry Matter Productivity                  46.8 kg[DM]/kg[N uptake]
   Yield Productivity                        7.9 kg[yield]/kg[N uptake]

--------------------------------------------------------------------------------------------------------------

                     Wheat YIELD :     2985 kg/ha    [Dry weight] 

**************************************************************************************************************

*DSSAT Cropping System Model Ver. 4.8.0.027 -release  MAR 20, 2023 17:24:45

*RUN   4        : Sim1                      WHAPS048 TEST2023    1
 MODEL          : WHAPS048 - Wheat
 EXPERIMENT     : TEST2023 SN TEST-KBAD
 DATA PATH      : C:\DSSAT48\Seasonal\
 TREATMENT  1   : Sim1                      WHAPS048


 CROP           : Wheat            CULTIVAR : MARIS FUNDIN     ECOTYPE :DFAULT
 STARTING DATE  : OCT 15 1978
 PLANTING DATE  : OCT 15 1978       LANTS/m2 :  1000.0    ROW SPACING :  10.cm
 WEATHER        : MIRY7801
 SOIL           : CORD860001     TEXTURE : SALO  - DEFAULT - DEEP SANDY LOAM
 SOIL INITIAL C : DEPTH:195cm EXTR. H2O:283.5mm  NO3:  0.0kg/ha  NH4:  0.0kg/ha
 WATER BALANCE  : IRRIGATE ON REPORTED DAP
 IRRIGATION     :        0 mm IN     0 APPLICATIONS
 NITROGEN BAL.  : SOIL-N & N-UPTAKE SIMULATION; NO N-FIXATION
 N-FERTILIZER   :      380 kg/ha IN     2 APPLICATIONS
 RESIDUE/MANURE : INITIAL :     0 kg/ha ;       0 kg/ha IN     0 APPLICATIONS
 ENVIRONM. OPT. : DAYL=    0.00  SRAD=    0.00  TMAX=    0.00  TMIN=    0.00