*SIMULATION OVERVIEW FILE

*DSSAT Cropping System Model Ver. 4.8.0.027 -release  MAR 20, 2023 17:11:38

*RUN   1        : Sim1                      WHAPS048 TEST2023    1
 MODEL          : WHAPS048 - Wheat
 EXPERIMENT     : TEST2023 SN TEST-KBAD
 DATA PATH      : C:\DSSAT48\Seasonal\
 TREATMENT  1   : Sim1                      WHAPS048


 CROP           : Wheat            CULTIVAR : MARIS FUNDIN     ECOTYPE :DFAULT
 STARTING DATE  : OCT 15 1975
 PLANTING DATE  : OCT 15 1975       LANTS/m2 :  1000.0    ROW SPACING :  10.cm
 WEATHER        : GWAN7501
 SOIL           : CORD860001     TEXTURE : SALO  - DEFAULT - DEEP SANDY LOAM
 SOIL INITIAL C : DEPTH:195cm EXTR. H2O:283.5mm  NO3:  0.0kg/ha  NH4:  0.0kg/ha
 WATER BALANCE  : IRRIGATE ON REPORTED DAP
 IRRIGATION     :        0 mm IN     0 APPLICATIONS
 NITROGEN BAL.  : SOIL-N & N-UPTAKE SIMULATION; NO N-FIXATION
 N-FERTILIZER   :      380 kg/ha IN     2 APPLICATIONS
 RESIDUE/MANURE : INITIAL :     0 kg/ha ;       0 kg/ha IN     0 APPLICATIONS
 ENVIRONM. OPT. : DAYL=    0.00  SRAD=    0.00  TMAX=    0.00  TMIN=    0.00
                  RAIN=    0.00  CO2 =    0.00  DEW =    0.00  WIND=    0.00
 SIMULATION OPT : WATER   :Y  NITROGEN:Y  N-FIX:N  PHOSPH :N  PESTS  :N
                  PHOTO   :C  ET      :R  INFIL:S  HYDROL :R  SOM    :G
                  CO2     :D  NSWIT   :1  EVAP :R  SOIL   :2  STEMP  :D
 MANAGEMENT OPT : PLANTING:R  IRRIG   :D  FERT :D  RESIDUE:R  HARVEST:M
                  WEATHER :M  TILLAGE :Y

*SUMMARY OF SOIL AND GENETIC INPUT PARAMETERS

   SOIL LOWER UPPER   SAT  EXTR  INIT   ROOT   BULK     pH    NO3    NH4    ORG
  DEPTH LIMIT LIMIT    SW    SW    SW   DIST   DENS                          C
   cm   cm3/cm3    cm3/cm3    cm3/cm3         g/cm3         ugN/g  ugN/g     %
-------------------------------------------------------------------------------
  0-  5 0.070 0.270 0.390 0.200 0.270   1.00   1.61   7.10   0.00   0.00   0.70
  5- 15 0.070 0.270 0.390 0.200 0.270   1.00   1.61   7.10   0.00   0.00   0.70
 15- 30 0.070 0.250 0.350 0.180 0.250   0.60   1.61   7.10   0.00   0.00   0.58
 30- 45 0.070 0.250 0.350 0.180 0.250   0.60   1.61   7.10   0.00   0.00   0.58
 45- 60 0.070 0.220 0.320 0.150 0.220   0.30   1.61   7.10   0.00   0.00   0.58
 60- 75 0.070 0.220 0.320 0.150 0.220   0.30   1.61   7.10   0.00   0.00   0.58
 75-105 0.070 0.200 0.300 0.130 0.200   0.22   1.61   7.10   0.00   0.00   0.43
105-135 0.070 0.195 0.285 0.125 0.195   0.22   1.62   7.10   0.00   0.00   0.26
135-165 0.070 0.180 0.280 0.110 0.180   0.22   1.62   7.10   0.00   0.00   0.12
165-195 0.070 0.220 0.310 0.150 0.220   0.22   1.62   7.10   0.00   0.00   0.04

TOT-195  13.6  42.0  61.2  28.3  42.0  <--cm   -  kg/ha-->    0.0    0.0 114114
SOIL ALBEDO    : 0.21      EVAPORATION LIMIT : 6.00         MIN. FACTOR  : 1.00
RUNOFF CURVE # :60.00      DRAINAGE RATE     : 0.60         FERT. FACTOR : 1.00

 Wheat            CULTIVAR: IB1015-MARIS FUNDIN       ECOTYPE: DFAULT


*SIMULATED CROP AND SOIL STATUS AT MAIN DEVELOPMENT STAGES

 RUN NO.     1     Sim1                    

        CROP GROWTH     BIOMASS         LEAF   CROP N     STRESS      STRESS                                           
   DATE  AGE STAGE        kg/ha    LAI   NUM  kg/ha  %   H2O  Nitr Phos1 Phos2  RSTG                                   
 ------  --- ----------   -----  -----  ----  ---  ---  ----  ----  ----  ----  ----                                   
 15 OCT    0 Fallow           0   0.00   0.0    0  0.0  0.00  0.00  0.00  0.00     8
 15 OCT    0 Sowing           0   0.00   0.0    0  0.0  0.00  0.00  0.00  0.00     8
 17 OCT    2 Germinate        0   0.00   0.0    0  0.0  0.00  0.00  0.00  0.00     9
 22 OCT    7 Emergence       52   0.05   0.0    2  4.4  0.00  0.01  0.00  0.00     1
 10 APR  178 End Juveni    6830   7.13   0.0  164  2.4  0.59  0.00  0.00  0.00     2
  1 MAY  199 End Veg       9632   7.17   0.0  249  2.6  0.76  0.00  0.00  0.00     3
 15 MAY  213 End Ear Gr   12788   6.68   0.0  295  2.3  0.80  0.00  0.00  0.00     4
 25 MAY  223 Beg Gr Fil   14731   5.82   0.0  295  2.0  0.77  0.00  0.00  0.00     5
 17 JUN  246 Maturity     17471   0.00   0.0  295  1.7  0.75  0.04  0.00  0.00     6
 18 JUN  247 Maturity     17471   0.00   0.0  295  1.7  0.30  1.00  0.00  0.00     7
 18 JUN  247 Harvest      17471   0.00   0.0  295  1.7  0.00  0.00  0.00  0.00     7


*MAIN GROWTH AND DEVELOPMENT VARIABLES

@     VARIABLE                                         SIMULATED     MEASURED
      --------                                         ---------     --------
      Anthesis day (dap)                                     213          -99
      Physiological maturity day (dap)                       247          -99
      Yield at harvest maturity (kg [dm]/ha)                4512          -99
      Number at maturity (no/m2)                           12434          -99
      Unit wt at maturity (g [dm]/unit)                     36.3          -99
      Number at maturity (no/unit)                          12.4          -99
      Tops weight at maturity (kg [dm]/ha)                 17471          -99
      By-product produced (stalk) at maturity (kg[dm]/ha       0          -99
      Leaf area index, maximum                              7.27          -99
      Harvest index at maturity                            0.258          -99
      Grain N at maturity (kg/ha)                             91          -99
      Tops N at maturity (kg/ha)                             295          -99
      Stem N at maturity (kg/ha)                               0          -99
      Grain N at maturity (%)                                2.0          -99
      Tops weight at anthesis (kg [dm]/ha)                     2          -99
      Tops N at anthesis (kg/ha)                              88          -99
      Leaf number per stem at maturity                      0.00          -99
      Emergence day (dap)                                      7          -99


*ENVIRONMENTAL AND STRESS FACTORS

 |-----Development Phase------|--------------------------------------Environment--------------------------------------|-----------------Stress-----------------|
                              |---------------Average--------------|-----Cumulative-----|--------Count of days--------|          (0=Min, 1=Max Stress)         |
                         Time  Temp  Temp  Temp Solar Photop                Evapo    Pot TMIN TMIN TMAX TMAX TMAX RAIN|----Water----|---Nitrogen--|-Phosphorus-|
                         Span   Max   Min  Mean   Rad  [day]    CO2   Rain  Trans     ET   <    <    >    >    >    >   Photo         Photo         Photo
                         days    ?    ?    ? MJ/m2     hr    ppm     mm     mm     mm  0?  2? 30? 32? 34?  0mm  synth Growth  synth Growth  synth Growth
----------------------------------------------------------------------------------------------------------------------------------------------------------------
 Emergence-End Juvenile   171  10.3   0.8   5.5   8.7  10.57  380.0  279.5  113.3  213.5   88  103    0    0    0   44  0.443  0.581  0.001  0.002  0.000  0.000
 End Juvenil-Floral Init   21  19.4   8.8  14.1  13.7  13.09  380.0  126.5   37.6   54.2    0    0    0    0    0    8  0.662  0.775  0.000  0.000  0.000  0.000
 Floral Init-End Lf Grow   14  20.0   8.3  14.1  17.1  13.66  380.0   14.0   47.8   45.4    0    0    0    0    0    1  0.690  0.794  0.000  0.000  0.000  0.000
 End Lf Grth-Beg Grn Fil   10  22.8  11.6  17.2  14.5  13.98  380.0   35.2   36.3   29.6    0    0    0    0    0    7  0.650  0.767  0.000  0.000  0.000  0.000
 Grain Filling Phase       23  25.0  16.5  20.7  13.4  14.26  380.0  200.0   61.3   68.0    0    0    1    0    0   12  0.648  0.766  0.000  0.000  0.000  0.000
   
 Planting to Harvest      247  13.9   4.1   9.0  10.3  11.47  380.0  658.7  311.1  429.6   88  103    1    0    0   73  0.489  0.617  0.004  0.005  0.000  0.000
----------------------------------------------------------------------------------------------------------------------------------------------------------------


*Resource Productivity
 Growing season length: 247 days 

 Precipitation during growing season       658.7 mm[rain]
   Dry Matter Productivity                  2.65 kg[DM]/m3[rain]          =   26.5 kg[DM]/ha per mm[rain]
   Yield Productivity                       0.68 kg[grain yield]/m3[rain] =    6.8 kg[yield]/ha per mm[rain]

 Evapotranspiration during growing season  311.1 mm[ET]
   Dry Matter Productivity                  5.62 kg[DM]/m3[ET]            =   56.2 kg[DM]/ha per mm[ET]
   Yield Productivity                       1.45 kg[grain yield]/m3[ET]   =   14.5 kg[yield]/ha per mm[ET]

 Transpiration during growing season       245.7 mm[EP]
   Dry Matter Productivity                  7.11 kg[DM]/m3[EP]            =   71.1 kg[DM]/ha per mm[EP]
   Yield Productivity                       1.84 kg[grain yield]/m3[EP]   =   18.4 kg[yield]/ha per mm[EP]

 N applied during growing season            380. kg[N applied]/ha
   Dry Matter Productivity                  46.0 kg[DM]/kg[N applied]
   Yield Productivity                       11.9 kg[yield]/kg[N applied]

 N uptake during growing season              375 kg[N uptake]/ha
   Dry Matter Productivity                  46.6 kg[DM]/kg[N uptake]
   Yield Productivity                       12.0 kg[yield]/kg[N uptake]

--------------------------------------------------------------------------------------------------------------

                     Wheat YIELD :     4512 kg/ha    [Dry weight] 

**************************************************************************************************************

*DSSAT Cropping System Model Ver. 4.8.0.027 -release  MAR 20, 2023 17:11:38

*RUN   2        : Sim1                      WHAPS048 TEST2023    1
 MODEL          : WHAPS048 - Wheat
 EXPERIMENT     : TEST2023 SN TEST-KBAD
 DATA PATH      : C:\DSSAT48\Seasonal\
 TREATMENT  1   : Sim1                      WHAPS048


 CROP           : Wheat            CULTIVAR : MARIS FUNDIN     ECOTYPE :DFAULT
 STARTING DATE  : OCT 14 1976
 PLANTING DATE  : OCT 14 1976       LANTS/m2 :  1000.0    ROW SPACING :  10.cm
 WEATHER        : GWAN7601
 SOIL           : CORD860001     TEXTURE : SALO  - DEFAULT - DEEP SANDY LOAM
 SOIL INITIAL C : DEPTH:195cm EXTR. H2O:283.5mm  NO3:  0.0kg/ha  NH4:  0.0kg/ha
 WATER BALANCE  : IRRIGATE ON REPORTED DAP
 IRRIGATION     :        0 mm IN     0 APPLICATIONS
 NITROGEN BAL.  : SOIL-N & N-UPTAKE SIMULATION; NO N-FIXATION
 N-FERTILIZER   :      380 kg/ha IN     2 APPLICATIONS
 RESIDUE/MANURE : INITIAL :     0 kg/ha ;       0 kg/ha IN     0 APPLICATIONS
 ENVIRONM. OPT. : DAYL=    0.00  SRAD=    0.00  TMAX=    0.00  TMIN=    0.00
                  RAIN=    0.00  CO2 =    0.00  DEW =    0.00  WIND=    0.00
 SIMULATION OPT : WATER   :Y  NITROGEN:Y  N-FIX:N  PHOSPH :N  PESTS  :N
                  PHOTO   :C  ET      :R  INFIL:S  HYDROL :R  SOM    :G
                  CO2     :D  NSWIT   :1  EVAP :R  SOIL   :2  STEMP  :D
 MANAGEMENT OPT : PLANTING:R  IRRIG   :D  FERT :D  RESIDUE:R  HARVEST:M
                  WEATHER :M  TILLAGE :Y

*SUMMARY OF SOIL AND GENETIC INPUT PARAMETERS

   SOIL LOWER UPPER   SAT  EXTR  INIT   ROOT   BULK     pH    NO3    NH4    ORG
  DEPTH LIMIT LIMIT    SW    SW    SW   DIST   DENS                          C
   cm   cm3/cm3    cm3/cm3    cm3/cm3         g/cm3         ugN/g  ugN/g     %
-------------------------------------------------------------------------------
  0-  5 0.070 0.270 0.390 0.200 0.270   1.00   1.61   7.10   0.00   0.00   0.70
  5- 15 0.070 0.270 0.390 0.200 0.270   1.00   1.61   7.10   0.00   0.00   0.70
 15- 30 0.070 0.250 0.350 0.180 0.250   0.60   1.61   7.10   0.00   0.00   0.58
 30- 45 0.070 0.250 0.350 0.180 0.250   0.60   1.61   7.10   0.00   0.00   0.58
 45- 60 0.070 0.220 0.320 0.150 0.220   0.30   1.61   7.10   0.00   0.00   0.58
 60- 75 0.070 0.220 0.320 0.150 0.220   0.30   1.61   7.10   0.00   0.00   0.58
 75-105 0.070 0.200 0.300 0.130 0.200   0.22   1.61   7.10   0.00   0.00   0.43
105-135 0.070 0.195 0.285 0.125 0.195   0.22   1.62   7.10   0.00   0.00   0.26
135-165 0.070 0.180 0.280 0.110 0.180   0.22   1.62   7.10   0.00   0.00   0.12
165-195 0.070 0.220 0.310 0.150 0.220   0.22   1.62   7.10   0.00   0.00   0.04

TOT-195  13.6  42.0  61.2  28.3  42.0  <--cm   -  kg/ha-->    0.0    0.0 114114
SOIL ALBEDO    : 0.21      EVAPORATION LIMIT : 6.00         MIN. FACTOR  : 1.00
RUNOFF CURVE # :60.00      DRAINAGE RATE     : 0.60         FERT. FACTOR : 1.00

 Wheat            CULTIVAR: IB1015-MARIS FUNDIN       ECOTYPE: DFAULT


*SIMULATED CROP AND SOIL STATUS AT MAIN DEVELOPMENT STAGES

 RUN NO.     2     Sim1                    

        CROP GROWTH     BIOMASS         LEAF   CROP N     STRESS      STRESS                                           
   DATE  AGE STAGE        kg/ha    LAI   NUM  kg/ha  %   H2O  Nitr Phos1 Phos2  RSTG                                   
 ------  --- ----------   -----  -----  ----  ---  ---  ----  ----  ----  ----  ----                                   
 14 OCT    0 Fallow           0   0.00   0.0    0  0.0  0.00  0.00  0.00  0.00     8
 14 OCT    0 Sowing           0   0.00   0.0    0  0.0  0.00  0.00  0.00  0.00     8
 16 OCT    2 Germinate        0   0.00   0.0    0  0.0  0.00  0.00  0.00  0.00     9
 21 OCT    7 Emergence       53   0.05   0.0    2  4.6  0.00  0.01  0.00  0.00     1
 14 APR  182 End Juveni    6727   6.62   0.0  180  2.7  0.56  0.00  0.00  0.00     2
  5 MAY  203 End Veg      10003   7.46   0.0  271  2.7  0.77  0.00  0.00  0.00     3
 16 MAY  214 End Ear Gr   12236   6.97   0.0  295  2.4  0.80  0.00  0.00  0.00     4
 25 MAY  223 Beg Gr Fil   14002   6.11   0.0  297  2.1  0.79  0.00  0.00  0.00     5
 16 JUN  245 Maturity     16822   0.11   0.0  297  1.8  0.80  0.05  0.00  0.00     6
 17 JUN  246 Maturity     16822   0.11   0.0  297  1.8  0.61  1.00  0.00  0.00     7
 17 JUN  246 Harvest      16822   0.11   0.0  297  1.8  0.00  0.00  0.00  0.00     7


*MAIN GROWTH AND DEVELOPMENT VARIABLES

@     VARIABLE                                         SIMULATED     MEASURED
      --------                                         ---------     --------
      Anthesis day (dap)                                     214          -99
      Physiological maturity day (dap)                       246          -99
      Yield at harvest maturity (kg [dm]/ha)                4354          -99
      Number at maturity (no/m2)                           10494          -99
      Unit wt at maturity (g [dm]/unit)                     41.5          -99
      Number at maturity (no/unit)                          10.5          -99
      Tops weight at maturity (kg [dm]/ha)                 16822          -99
      By-product produced (stalk) at maturity (kg[dm]/ha       0          -99
      Leaf area index, maximum                              7.50          -99
      Harvest index at maturity                            0.259          -99
      Grain N at maturity (kg/ha)                             79          -99
      Tops N at maturity (kg/ha)                             297          -99
      Stem N at maturity (kg/ha)                               0          -99
      Grain N at maturity (%)                                1.8          -99
      Tops weight at anthesis (kg [dm]/ha)                     2          -99
      Tops N at anthesis (kg/ha)                              88          -99
      Leaf number per stem at maturity                      0.00          -99
      Emergence day (dap)                                      7          -99


*ENVIRONMENTAL AND STRESS FACTORS

 |-----Development Phase------|--------------------------------------Environment--------------------------------------|-----------------Stress-----------------|
                              |---------------Average--------------|-----Cumulative-----|--------Count of days--------|          (0=Min, 1=Max Stress)         |
                         Time  Temp  Temp  Temp Solar Photop                Evapo    Pot TMIN TMIN TMAX TMAX TMAX RAIN|----Water----|---Nitrogen--|-Phosphorus-|
                         Span   Max   Min  Mean   Rad  [day]    CO2   Rain  Trans     ET   <    <    >    >    >    >   Photo         Photo         Photo
                         days    ?    ?    ? MJ/m2     hr    ppm     mm     mm     mm  0?  2? 30? 32? 34?  0mm  synth Growth  synth Growth  synth Growth
----------------------------------------------------------------------------------------------------------------------------------------------------------------
 Emergence-End Juvenile   175   9.2  -0.6   4.3   8.5  10.60  380.0  279.8  128.3  197.9   91  120    0    0    0   58  0.419  0.555  0.001  0.002  0.000  0.000
 End Juvenil-Floral Init   21  19.8   9.6  14.7  13.0  13.20  380.0  173.6   46.5   52.1    0    0    0    0    0   12  0.665  0.777  0.000  0.000  0.000  0.000
 Floral Init-End Lf Grow   11  23.1  12.0  17.6  14.3  13.70  380.0   30.7   41.6   32.3    0    0    0    0    0    2  0.670  0.781  0.000  0.000  0.000  0.000
 End Lf Grth-Beg Grn Fil    9  23.9  12.9  18.4  15.6  13.97  380.0    6.7   37.5   29.2    0    0    0    0    0    2  0.698  0.799  0.000  0.000  0.000  0.000
 Grain Filling Phase       22  26.2  16.9  21.6  15.1  14.24  380.0  140.8   62.5   74.2    0    0    0    0    0    5  0.713  0.809  0.000  0.000  0.000  0.000
   
 Planting to Harvest      246  13.3   3.3   8.3  10.1  11.44  380.0  642.6  332.9  404.3   91  120    0    0    0   81  0.476  0.600  0.004  0.005  0.000  0.000
----------------------------------------------------------------------------------------------------------------------------------------------------------------


*Resource Productivity
 Growing season length: 246 days 

 Precipitation during growing season       642.6 mm[rain]
   Dry Matter Productivity                  2.62 kg[DM]/m3[rain]          =   26.2 kg[DM]/ha per mm[rain]
   Yield Productivity                       0.68 kg[grain yield]/m3[rain] =    6.8 kg[yield]/ha per mm[rain]

 Evapotranspiration during growing season  332.9 mm[ET]
   Dry Matter Productivity                  5.05 kg[DM]/m3[ET]            =   50.5 kg[DM]/ha per mm[ET]
   Yield Productivity                       1.31 kg[grain yield]/m3[ET]   =   13.1 kg[yield]/ha per mm[ET]

 Transpiration during growing season       257.7 mm[EP]
   Dry Matter Productivity                  6.53 kg[DM]/m3[EP]            =   65.3 kg[DM]/ha per mm[EP]
   Yield Productivity                       1.69 kg[grain yield]/m3[EP]   =   16.9 kg[yield]/ha per mm[EP]

 N applied during growing season            380. kg[N applied]/ha
   Dry Matter Productivity                  44.3 kg[DM]/kg[N applied]
   Yield Productivity                       11.5 kg[yield]/kg[N applied]

 N uptake during growing season              371 kg[N uptake]/ha
   Dry Matter Productivity                  45.3 kg[DM]/kg[N uptake]
   Yield Productivity                       11.7 kg[yield]/kg[N uptake]

--------------------------------------------------------------------------------------------------------------

                     Wheat YIELD :     4354 kg/ha    [Dry weight] 

**************************************************************************************************************

*DSSAT Cropping System Model Ver. 4.8.0.027 -release  MAR 20, 2023 17:11:38

*RUN   3        : Sim1                      WHAPS048 TEST2023    1
 MODEL          : WHAPS048 - Wheat
 EXPERIMENT     : TEST2023 SN TEST-KBAD
 DATA PATH      : C:\DSSAT48\Seasonal\
 TREATMENT  1   : Sim1                      WHAPS048


 CROP           : Wheat            CULTIVAR : MARIS FUNDIN     ECOTYPE :DFAULT
 STARTING DATE  : OCT 15 1977
 PLANTING DATE  : OCT 15 1977       LANTS/m2 :  1000.0    ROW SPACING :  10.cm
 WEATHER        : GWAN7701
 SOIL           : CORD860001     TEXTURE : SALO  - DEFAULT - DEEP SANDY LOAM
 SOIL INITIAL C : DEPTH:195cm EXTR. H2O:283.5mm  NO3:  0.0kg/ha  NH4:  0.0kg/ha
 WATER BALANCE  : IRRIGATE ON REPORTED DAP
 IRRIGATION     :        0 mm IN     0 APPLICATIONS
 NITROGEN BAL.  : SOIL-N & N-UPTAKE SIMULATION; NO N-FIXATION
 N-FERTILIZER   :      380 kg/ha IN     2 APPLICATIONS
 RESIDUE/MANURE : INITIAL :     0 kg/ha ;       0 kg/ha IN     0 APPLICATIONS
 ENVIRONM. OPT. : DAYL=    0.00  SRAD=    0.00  TMAX=    0.00  TMIN=    0.00
                  RAIN=    0.00  CO2 =    0.00  DEW =    0.00  WIND=    0.00
 SIMULATION OPT : WATER   :Y  NITROGEN:Y  N-FIX:N  PHOSPH :N  PESTS  :N
                  PHOTO   :C  ET      :R  INFIL:S  HYDROL :R  SOM    :G
                  CO2     :D  NSWIT   :1  EVAP :R  SOIL   :2  STEMP  :D
 MANAGEMENT OPT : PLANTING:R  IRRIG   :D  FERT :D  RESIDUE:R  HARVEST:M
                  WEATHER :M  TILLAGE :Y

*SUMMARY OF SOIL AND GENETIC INPUT PARAMETERS

   SOIL LOWER UPPER   SAT  EXTR  INIT   ROOT   BULK     pH    NO3    NH4    ORG
  DEPTH LIMIT LIMIT    SW    SW    SW   DIST   DENS                          C
   cm   cm3/cm3    cm3/cm3    cm3/cm3         g/cm3         ugN/g  ugN/g     %
-------------------------------------------------------------------------------
  0-  5 0.070 0.270 0.390 0.200 0.270   1.00   1.61   7.10   0.00   0.00   0.70
  5- 15 0.070 0.270 0.390 0.200 0.270   1.00   1.61   7.10   0.00   0.00   0.70
 15- 30 0.070 0.250 0.350 0.180 0.250   0.60   1.61   7.10   0.00   0.00   0.58
 30- 45 0.070 0.250 0.350 0.180 0.250   0.60   1.61   7.10   0.00   0.00   0.58
 45- 60 0.070 0.220 0.320 0.150 0.220   0.30   1.61   7.10   0.00   0.00   0.58
 60- 75 0.070 0.220 0.320 0.150 0.220   0.30   1.61   7.10   0.00   0.00   0.58
 75-105 0.070 0.200 0.300 0.130 0.200   0.22   1.61   7.10   0.00   0.00   0.43
105-135 0.070 0.195 0.285 0.125 0.195   0.22   1.62   7.10   0.00   0.00   0.26
135-165 0.070 0.180 0.280 0.110 0.180   0.22   1.62   7.10   0.00   0.00   0.12
165-195 0.070 0.220 0.310 0.150 0.220   0.22   1.62   7.10   0.00   0.00   0.04

TOT-195  13.6  42.0  61.2  28.3  42.0  <--cm   -  kg/ha-->    0.0    0.0 114114
SOIL ALBEDO    : 0.21      EVAPORATION LIMIT : 6.00         MIN. FACTOR  : 1.00
RUNOFF CURVE # :60.00      DRAINAGE RATE     : 0.60         FERT. FACTOR : 1.00

 Wheat            CULTIVAR: IB1015-MARIS FUNDIN       ECOTYPE: DFAULT


*SIMULATED CROP AND SOIL STATUS AT MAIN DEVELOPMENT STAGES

 RUN NO.     3     Sim1                    

        CROP GROWTH     BIOMASS         LEAF   CROP N     STRESS      STRESS                                           
   DATE  AGE STAGE        kg/ha    LAI   NUM  kg/ha  %   H2O  Nitr Phos1 Phos2  RSTG                                   
 ------  --- ----------   -----  -----  ----  ---  ---  ----  ----  ----  ----  ----                                   
 15 OCT    0 Fallow           0   0.00   0.0    0  0.0  0.00  0.00  0.00  0.00     8
 15 OCT    0 Sowing           0   0.00   0.0    0  0.0  0.00  0.00  0.00  0.00     8
 17 OCT    2 Germinate        0   0.00   0.0    0  0.0  0.00  0.00  0.00  0.00     9
 23 OCT    8 Emergence       56   0.05   0.0    2  4.1  0.17  0.00  0.00  0.00     1
  9 APR  176 End Juveni    6962   6.83   0.0  167  2.4  0.59  0.00  0.00  0.00     2
 30 APR  197 End Veg      10104   7.40   0.0  244  2.4  0.83  0.00  0.00  0.00     3
 11 MAY  208 End Ear Gr   12451   6.94   0.0  273  2.2  0.83  0.00  0.00  0.00     4
 20 MAY  217 Beg Gr Fil   13991   6.01   0.0  274  2.0  0.97  0.00  0.00  0.00     5
 11 JUN  239 Maturity     15201   0.00   0.0  274  1.8  0.86  0.05  0.00  0.00     6
 12 JUN  240 Maturity     15201   0.00   0.0  274  1.8  0.00  1.00  0.00  0.00     7
 12 JUN  240 Harvest      15201   0.00   0.0  274  1.8  0.00  0.00  0.00  0.00     7


*MAIN GROWTH AND DEVELOPMENT VARIABLES

@     VARIABLE                                         SIMULATED     MEASURED
      --------                                         ---------     --------
      Anthesis day (dap)                                     208          -99
      Physiological maturity day (dap)                       240          -99
      Yield at harvest maturity (kg [dm]/ha)                2768          -99
      Number at maturity (no/m2)                           10495          -99
      Unit wt at maturity (g [dm]/unit)                     26.4          -99
      Number at maturity (no/unit)                          10.5          -99
      Tops weight at maturity (kg [dm]/ha)                 15201          -99
      By-product produced (stalk) at maturity (kg[dm]/ha       0          -99
      Leaf area index, maximum                              7.50          -99
      Harvest index at maturity                            0.182          -99
      Grain N at maturity (kg/ha)                             62          -99
      Tops N at maturity (kg/ha)                             274          -99
      Stem N at maturity (kg/ha)                               0          -99
      Grain N at maturity (%)                                2.3          -99
      Tops weight at anthesis (kg [dm]/ha)                     2          -99
      Tops N at anthesis (kg/ha)                              88          -99
      Leaf number per stem at maturity                      0.00          -99
      Emergence day (dap)                                      8          -99


*ENVIRONMENTAL AND STRESS FACTORS

 |-----Development Phase------|--------------------------------------Environment--------------------------------------|-----------------Stress-----------------|
                              |---------------Average--------------|-----Cumulative-----|--------Count of days--------|          (0=Min, 1=Max Stress)         |
                         Time  Temp  Temp  Temp Solar Photop                Evapo    Pot TMIN TMIN TMAX TMAX TMAX RAIN|----Water----|---Nitrogen--|-Phosphorus-|
                         Span   Max   Min  Mean   Rad  [day]    CO2   Rain  Trans     ET   <    <    >    >    >    >   Photo         Photo         Photo
                         days    ?    ?    ? MJ/m2     hr    ppm     mm     mm     mm  0?  2? 30? 32? 34?  0mm  synth Growth  synth Growth  synth Growth
----------------------------------------------------------------------------------------------------------------------------------------------------------------
 Emergence-End Juvenile   168  10.7   0.6   5.6   8.9  10.55  380.0  243.6  111.7  221.5   89  110    0    0    0   57  0.448  0.587  0.000  0.001  0.000  0.000
 End Juvenil-Floral Init   21  21.5   8.3  14.9  16.0  13.02  380.0   20.9   52.8   64.6    0    0    0    0    0    5  0.743  0.829  0.000  0.000  0.000  0.000
 Floral Init-End Lf Grow   11  24.2   9.9  17.1  15.9  13.56  380.0    1.2   54.1   35.6    0    0    0    0    0    1  0.742  0.828  0.000  0.000  0.000  0.000
 End Lf Grth-Beg Grn Fil    9  27.3  11.5  19.4  17.8  13.84  380.0    3.2   49.1   34.3    0    0    2    0    0    1  0.948  0.966  0.000  0.000  0.000  0.000
 Grain Filling Phase       22  28.5  14.7  21.6  18.3  14.17  380.0  136.9   45.4   90.5    0    0   10    4    0    5  0.899  0.903  0.000  0.000  0.000  0.000
   
 Planting to Harvest      240  15.1   3.7   9.4  11.2  11.39  380.0  405.8  330.6  472.5   89  110   12    4    0   69  0.530  0.641  0.004  0.005  0.000  0.000
----------------------------------------------------------------------------------------------------------------------------------------------------------------


*Resource Productivity
 Growing season length: 240 days 

 Precipitation during growing season       405.8 mm[rain]
   Dry Matter Productivity                  3.75 kg[DM]/m3[rain]          =   37.5 kg[DM]/ha per mm[rain]
   Yield Productivity                       0.68 kg[grain yield]/m3[rain] =    6.8 kg[yield]/ha per mm[rain]

 Evapotranspiration during growing season  330.6 mm[ET]
   Dry Matter Productivity                  4.60 kg[DM]/m3[ET]            =   46.0 kg[DM]/ha per mm[ET]
   Yield Productivity                       0.84 kg[grain yield]/m3[ET]   =    8.4 kg[yield]/ha per mm[ET]

 Transpiration during growing season       267.9 mm[EP]
   Dry Matter Productivity                  5.67 kg[DM]/m3[EP]            =   56.7 kg[DM]/ha per mm[EP]
   Yield Productivity                       1.03 kg[grain yield]/m3[EP]   =   10.3 kg[yield]/ha per mm[EP]

 N applied during growing season            380. kg[N applied]/ha
   Dry Matter Productivity                  40.0 kg[DM]/kg[N applied]
   Yield Productivity                        7.3 kg[yield]/kg[N applied]

 N uptake during growing season              348 kg[N uptake]/ha
   Dry Matter Productivity                  43.7 kg[DM]/kg[N uptake]
   Yield Productivity                        8.0 kg[yield]/kg[N uptake]

--------------------------------------------------------------------------------------------------------------

                     Wheat YIELD :     2768 kg/ha    [Dry weight] 

**************************************************************************************************************

*DSSAT Cropping System Model Ver. 4.8.0.027 -release  MAR 20, 2023 17:11:38

*RUN   4        : Sim1                      WHAPS048 TEST2023    1
 MODEL          : WHAPS048 - Wheat
 EXPERIMENT     : TEST2023 SN TEST-KBAD
 DATA PATH      : C:\DSSAT48\Seasonal\
 TREATMENT  1   : Sim1                      WHAPS048


 CROP           : Wheat            CULTIVAR : MARIS FUNDIN     ECOTYPE :DFAULT
 STARTING DATE  : OCT 15 1978
 PLANTING DATE  : OCT 15 1978       LANTS/m2 :  1000.0    ROW SPACING :  10.cm
 WEATHER        : GWAN7801
 SOIL           : CORD860001     TEXTURE : SALO  - DEFAULT - DEEP SANDY LOAM