*SIMULATION OVERVIEW FILE

*DSSAT Cropping System Model Ver. 4.8.0.027 -release  MAR 24, 2023 18:40:39

*RUN   1        : Sim1                      WHAPS048 TEST2023    1
 MODEL          : WHAPS048 - Wheat
 EXPERIMENT     : TEST2023 SN TEST-KBAD
 DATA PATH      : C:\DSSAT48\Seasonal\
 TREATMENT  1   : Sim1                      WHAPS048


 CROP           : Wheat            CULTIVAR : MARIS FUNDIN     ECOTYPE :DFAULT
 STARTING DATE  : OCT 15 1975
 PLANTING DATE  : OCT 15 1975       LANTS/m2 :  1000.0    ROW SPACING :  10.cm
 WEATHER        : CHUN7501
 SOIL           : CORD860001     TEXTURE : SALO  - DEFAULT - DEEP SANDY LOAM
 SOIL INITIAL C : DEPTH:195cm EXTR. H2O:283.5mm  NO3:  0.0kg/ha  NH4:  0.0kg/ha
 WATER BALANCE  : IRRIGATE ON REPORTED DAP
 IRRIGATION     :        0 mm IN     0 APPLICATIONS
 NITROGEN BAL.  : SOIL-N & N-UPTAKE SIMULATION; NO N-FIXATION
 N-FERTILIZER   :      380 kg/ha IN     2 APPLICATIONS
 RESIDUE/MANURE : INITIAL :     0 kg/ha ;       0 kg/ha IN     0 APPLICATIONS
 ENVIRONM. OPT. : DAYL=    0.00  SRAD=    0.00  TMAX=    0.00  TMIN=    0.00
                  RAIN=    0.00  CO2 =    0.00  DEW =    0.00  WIND=    0.00
 SIMULATION OPT : WATER   :Y  NITROGEN:Y  N-FIX:N  PHOSPH :N  PESTS  :N
                  PHOTO   :C  ET      :R  INFIL:S  HYDROL :R  SOM    :G
                  CO2     :D  NSWIT   :1  EVAP :R  SOIL   :2  STEMP  :D
 MANAGEMENT OPT : PLANTING:R  IRRIG   :D  FERT :D  RESIDUE:R  HARVEST:M
                  WEATHER :M  TILLAGE :Y

*SUMMARY OF SOIL AND GENETIC INPUT PARAMETERS

   SOIL LOWER UPPER   SAT  EXTR  INIT   ROOT   BULK     pH    NO3    NH4    ORG
  DEPTH LIMIT LIMIT    SW    SW    SW   DIST   DENS                          C
   cm   cm3/cm3    cm3/cm3    cm3/cm3         g/cm3         ugN/g  ugN/g     %
-------------------------------------------------------------------------------
  0-  5 0.070 0.270 0.390 0.200 0.270   1.00   1.61   7.10   0.00   0.00   0.70
  5- 15 0.070 0.270 0.390 0.200 0.270   1.00   1.61   7.10   0.00   0.00   0.70
 15- 30 0.070 0.250 0.350 0.180 0.250   0.60   1.61   7.10   0.00   0.00   0.58
 30- 45 0.070 0.250 0.350 0.180 0.250   0.60   1.61   7.10   0.00   0.00   0.58
 45- 60 0.070 0.220 0.320 0.150 0.220   0.30   1.61   7.10   0.00   0.00   0.58
 60- 75 0.070 0.220 0.320 0.150 0.220   0.30   1.61   7.10   0.00   0.00   0.58
 75-105 0.070 0.200 0.300 0.130 0.200   0.22   1.61   7.10   0.00   0.00   0.43
105-135 0.070 0.195 0.285 0.125 0.195   0.22   1.62   7.10   0.00   0.00   0.26
135-165 0.070 0.180 0.280 0.110 0.180   0.22   1.62   7.10   0.00   0.00   0.12
165-195 0.070 0.220 0.310 0.150 0.220   0.22   1.62   7.10   0.00   0.00   0.04

TOT-195  13.6  42.0  61.2  28.3  42.0  <--cm   -  kg/ha-->    0.0    0.0 114114
SOIL ALBEDO    : 0.21      EVAPORATION LIMIT : 6.00         MIN. FACTOR  : 1.00
RUNOFF CURVE # :60.00      DRAINAGE RATE     : 0.60         FERT. FACTOR : 1.00

 Wheat            CULTIVAR: IB1015-MARIS FUNDIN       ECOTYPE: DFAULT


*SIMULATED CROP AND SOIL STATUS AT MAIN DEVELOPMENT STAGES

 RUN NO.     1     Sim1                    

        CROP GROWTH     BIOMASS         LEAF   CROP N     STRESS      STRESS                                           
   DATE  AGE STAGE        kg/ha    LAI   NUM  kg/ha  %   H2O  Nitr Phos1 Phos2  RSTG                                   
 ------  --- ----------   -----  -----  ----  ---  ---  ----  ----  ----  ----  ----                                   
 15 OCT    0 Fallow           0   0.00   0.0    0  0.0  0.00  0.00  0.00  0.00     8
 15 OCT    0 Sowing           0   0.00   0.0    0  0.0  0.00  0.00  0.00  0.00     8
 17 OCT    2 Germinate        0   0.00   0.0    0  0.0  0.00  0.00  0.00  0.00     9
 24 OCT    9 Emergence       45   0.05   0.0    2  5.0  0.00  0.00  0.00  0.00     1
 26 APR  194 End Juveni    6984   8.15   0.0  217  3.1  0.57  0.00  0.00  0.00     2
 17 MAY  215 End Veg      11157   9.18   0.0  300  2.7  0.71  0.00  0.00  0.00     3
 28 MAY  226 End Ear Gr   13694   8.56   0.0  307  2.2  0.79  0.00  0.00  0.00     4
  6 JUN  235 Beg Gr Fil   15191   7.30   0.0  308  2.0  0.97  0.00  0.00  0.00     5
 28 JUN  257 Maturity     17838   0.00   0.0  308  1.7  0.94  0.05  0.00  0.00     6
 29 JUN  258 Maturity     17838   0.00   0.0  308  1.7  0.96  1.00  0.00  0.00     7
 29 JUN  258 Harvest      17838   0.00   0.0  308  1.7  0.00  0.00  0.00  0.00     7


*MAIN GROWTH AND DEVELOPMENT VARIABLES

@     VARIABLE                                         SIMULATED     MEASURED
      --------                                         ---------     --------
      Anthesis day (dap)                                     226          -99
      Physiological maturity day (dap)                       258          -99
      Yield at harvest maturity (kg [dm]/ha)                4205          -99
      Number at maturity (no/m2)                           11503          -99
      Unit wt at maturity (g [dm]/unit)                     36.6          -99
      Number at maturity (no/unit)                          11.5          -99
      Tops weight at maturity (kg [dm]/ha)                 17838          -99
      By-product produced (stalk) at maturity (kg[dm]/ha       0          -99
      Leaf area index, maximum                              9.27          -99
      Harvest index at maturity                            0.236          -99
      Grain N at maturity (kg/ha)                             83          -99
      Tops N at maturity (kg/ha)                             308          -99
      Stem N at maturity (kg/ha)                               0          -99
      Grain N at maturity (%)                                2.0          -99
      Tops weight at anthesis (kg [dm]/ha)                     2          -99
      Tops N at anthesis (kg/ha)                              88          -99
      Leaf number per stem at maturity                      0.00          -99
      Emergence day (dap)                                      9          -99


*ENVIRONMENTAL AND STRESS FACTORS

 |-----Development Phase------|--------------------------------------Environment--------------------------------------|-----------------Stress-----------------|
                              |---------------Average--------------|-----Cumulative-----|--------Count of days--------|          (0=Min, 1=Max Stress)         |
                         Time  Temp  Temp  Temp Solar Photop                Evapo    Pot TMIN TMIN TMAX TMAX TMAX RAIN|----Water----|---Nitrogen--|-Phosphorus-|
                         Span   Max   Min  Mean   Rad  [day]    CO2   Rain  Trans     ET   <    <    >    >    >    >   Photo         Photo         Photo
                         days    ?    ?    ? MJ/m2     hr    ppm     mm     mm     mm  0?  2? 30? 32? 34?  0mm  synth Growth  synth Growth  synth Growth
----------------------------------------------------------------------------------------------------------------------------------------------------------------
 Emergence-End Juvenile   185   8.7  -2.6   3.0   9.3  10.65  380.0  186.8  139.7  233.4  114  136    0    0    0   39  0.450  0.561  0.001  0.002  0.000  0.000
 End Juvenil-Floral Init   21  20.3   7.4  13.8  15.4  13.78  380.0   65.5   74.8   61.1    0    0    0    0    0    7  0.612  0.710  0.000  0.000  0.000  0.000
 Floral Init-End Lf Grow   11  26.1   9.9  18.0  20.9  14.25  380.0   10.8   67.0   48.3    0    0    2    1    0    1  0.715  0.780  0.000  0.000  0.000  0.000
 End Lf Grth-Beg Grn Fil    9  26.7  14.0  20.3  18.7  14.46  380.0   12.6   46.4   36.5    0    0    1    0    0    2  0.937  0.958  0.000  0.000  0.000  0.000
 Grain Filling Phase       22  26.7  16.5  21.6  17.9  14.61  380.0   46.1   63.1   87.5    0    0    0    0    0   11  0.915  0.944  0.000  0.000  0.000  0.000
   
 Planting to Harvest      258  13.1   1.3   7.2  11.6  11.55  380.0  321.8  406.6  499.9  114  136    4    2    0   60  0.517  0.611  0.004  0.005  0.000  0.000
----------------------------------------------------------------------------------------------------------------------------------------------------------------


*Resource Productivity
 Growing season length: 258 days 

 Precipitation during growing season       321.8 mm[rain]
   Dry Matter Productivity                  5.54 kg[DM]/m3[rain]          =   55.4 kg[DM]/ha per mm[rain]
   Yield Productivity                       1.31 kg[grain yield]/m3[rain] =   13.1 kg[yield]/ha per mm[rain]

 Evapotranspiration during growing season  406.6 mm[ET]
   Dry Matter Productivity                  4.39 kg[DM]/m3[ET]            =   43.9 kg[DM]/ha per mm[ET]
   Yield Productivity                       1.03 kg[grain yield]/m3[ET]   =   10.3 kg[yield]/ha per mm[ET]

 Transpiration during growing season       340.5 mm[EP]
   Dry Matter Productivity                  5.24 kg[DM]/m3[EP]            =   52.4 kg[DM]/ha per mm[EP]
   Yield Productivity                       1.24 kg[grain yield]/m3[EP]   =   12.4 kg[yield]/ha per mm[EP]

 N applied during growing season            380. kg[N applied]/ha
   Dry Matter Productivity                  46.9 kg[DM]/kg[N applied]
   Yield Productivity                       11.1 kg[yield]/kg[N applied]

 N uptake during growing season              394 kg[N uptake]/ha
   Dry Matter Productivity                  45.3 kg[DM]/kg[N uptake]
   Yield Productivity                       10.7 kg[yield]/kg[N uptake]

--------------------------------------------------------------------------------------------------------------

                     Wheat YIELD :     4205 kg/ha    [Dry weight] 

**************************************************************************************************************

*DSSAT Cropping System Model Ver. 4.8.0.027 -release  MAR 24, 2023 18:40:39

*RUN   2        : Sim1                      WHAPS048 TEST2023    1
 MODEL          : WHAPS048 - Wheat
 EXPERIMENT     : TEST2023 SN TEST-KBAD
 DATA PATH      : C:\DSSAT48\Seasonal\
 TREATMENT  1   : Sim1                      WHAPS048


 CROP           : Wheat            CULTIVAR : MARIS FUNDIN     ECOTYPE :DFAULT
 STARTING DATE  : OCT 14 1976
 PLANTING DATE  : OCT 14 1976       LANTS/m2 :  1000.0    ROW SPACING :  10.cm
 WEATHER        : CHUN7601
 SOIL           : CORD860001     TEXTURE : SALO  - DEFAULT - DEEP SANDY LOAM
 SOIL INITIAL C : DEPTH:195cm EXTR. H2O:283.5mm  NO3:  0.0kg/ha  NH4:  0.0kg/ha
 WATER BALANCE  : IRRIGATE ON REPORTED DAP
 IRRIGATION     :        0 mm IN     0 APPLICATIONS
 NITROGEN BAL.  : SOIL-N & N-UPTAKE SIMULATION; NO N-FIXATION
 N-FERTILIZER   :      380 kg/ha IN     2 APPLICATIONS
 RESIDUE/MANURE : INITIAL :     0 kg/ha ;       0 kg/ha IN     0 APPLICATIONS
 ENVIRONM. OPT. : DAYL=    0.00  SRAD=    0.00  TMAX=    0.00  TMIN=    0.00
                  RAIN=    0.00  CO2 =    0.00  DEW =    0.00  WIND=    0.00
 SIMULATION OPT : WATER   :Y  NITROGEN:Y  N-FIX:N  PHOSPH :N  PESTS  :N
                  PHOTO   :C  ET      :R  INFIL:S  HYDROL :R  SOM    :G
                  CO2     :D  NSWIT   :1  EVAP :R  SOIL   :2  STEMP  :D
 MANAGEMENT OPT : PLANTING:R  IRRIG   :D  FERT :D  RESIDUE:R  HARVEST:M
                  WEATHER :M  TILLAGE :Y

*SUMMARY OF SOIL AND GENETIC INPUT PARAMETERS

   SOIL LOWER UPPER   SAT  EXTR  INIT   ROOT   BULK     pH    NO3    NH4    ORG
  DEPTH LIMIT LIMIT    SW    SW    SW   DIST   DENS                          C
   cm   cm3/cm3    cm3/cm3    cm3/cm3         g/cm3         ugN/g  ugN/g     %
-------------------------------------------------------------------------------
  0-  5 0.070 0.270 0.390 0.200 0.270   1.00   1.61   7.10   0.00   0.00   0.70
  5- 15 0.070 0.270 0.390 0.200 0.270   1.00   1.61   7.10   0.00   0.00   0.70
 15- 30 0.070 0.250 0.350 0.180 0.250   0.60   1.61   7.10   0.00   0.00   0.58
 30- 45 0.070 0.250 0.350 0.180 0.250   0.60   1.61   7.10   0.00   0.00   0.58
 45- 60 0.070 0.220 0.320 0.150 0.220   0.30   1.61   7.10   0.00   0.00   0.58
 60- 75 0.070 0.220 0.320 0.150 0.220   0.30   1.61   7.10   0.00   0.00   0.58
 75-105 0.070 0.200 0.300 0.130 0.200   0.22   1.61   7.10   0.00   0.00   0.43
105-135 0.070 0.195 0.285 0.125 0.195   0.22   1.62   7.10   0.00   0.00   0.26
135-165 0.070 0.180 0.280 0.110 0.180   0.22   1.62   7.10   0.00   0.00   0.12
165-195 0.070 0.220 0.310 0.150 0.220   0.22   1.62   7.10   0.00   0.00   0.04

TOT-195  13.6  42.0  61.2  28.3  42.0  <--cm   -  kg/ha-->    0.0    0.0 114114
SOIL ALBEDO    : 0.21      EVAPORATION LIMIT : 6.00         MIN. FACTOR  : 1.00
RUNOFF CURVE # :60.00      DRAINAGE RATE     : 0.60         FERT. FACTOR : 1.00

 Wheat            CULTIVAR: IB1015-MARIS FUNDIN       ECOTYPE: DFAULT


*SIMULATED CROP AND SOIL STATUS AT MAIN DEVELOPMENT STAGES

 RUN NO.     2     Sim1                    

        CROP GROWTH     BIOMASS         LEAF   CROP N     STRESS      STRESS                                           
   DATE  AGE STAGE        kg/ha    LAI   NUM  kg/ha  %   H2O  Nitr Phos1 Phos2  RSTG                                   
 ------  --- ----------   -----  -----  ----  ---  ---  ----  ----  ----  ----  ----                                   
 14 OCT    0 Fallow           0   0.00   0.0    0  0.0  0.00  0.00  0.00  0.00     8
 14 OCT    0 Sowing           0   0.00   0.0    0  0.0  0.00  0.00  0.00  0.00     8
 16 OCT    2 Germinate        0   0.00   0.0    0  0.0  0.00  0.00  0.00  0.00     9
 23 OCT    9 Emergence       42   0.04   0.0    2  5.5  0.00  0.00  0.00  0.00     1
 30 APR  198 End Juveni    7586   9.08   0.0  245  3.2  0.45  0.00  0.00  0.00     2
 19 MAY  217 End Veg      11685   9.61   0.0  309  2.6  0.68  0.00  0.00  0.00     3
 29 MAY  227 End Ear Gr   13832   8.99   0.0  314  2.3  0.74  0.00  0.00  0.00     4
  7 JUN  236 Beg Gr Fil   15766   7.79   0.0  317  2.0  0.86  0.00  0.00  0.00     5
 28 JUN  257 Maturity     18668   0.00   0.0  317  1.7  0.89  0.05  0.00  0.00     6
 29 JUN  258 Maturity     18668   0.00   0.0  317  1.7  0.00  1.00  0.00  0.00     7
 29 JUN  258 Harvest      18668   0.00   0.0  317  1.7  0.00  0.00  0.00  0.00     7


*MAIN GROWTH AND DEVELOPMENT VARIABLES

@     VARIABLE                                         SIMULATED     MEASURED
      --------                                         ---------     --------
      Anthesis day (dap)                                     227          -99
      Physiological maturity day (dap)                       258          -99
      Yield at harvest maturity (kg [dm]/ha)                4806          -99
      Number at maturity (no/m2)                           11454          -99
      Unit wt at maturity (g [dm]/unit)                     42.0          -99
      Number at maturity (no/unit)                          11.5          -99
      Tops weight at maturity (kg [dm]/ha)                 18668          -99
      By-product produced (stalk) at maturity (kg[dm]/ha       0          -99
      Leaf area index, maximum                              9.73          -99
      Harvest index at maturity                            0.257          -99
      Grain N at maturity (kg/ha)                             79          -99
      Tops N at maturity (kg/ha)                             317          -99
      Stem N at maturity (kg/ha)                               0          -99
      Grain N at maturity (%)                                1.7          -99
      Tops weight at anthesis (kg [dm]/ha)                     2          -99
      Tops N at anthesis (kg/ha)                              88          -99
      Leaf number per stem at maturity                      0.00          -99
      Emergence day (dap)                                      9          -99


*ENVIRONMENTAL AND STRESS FACTORS

 |-----Development Phase------|--------------------------------------Environment--------------------------------------|-----------------Stress-----------------|
                              |---------------Average--------------|-----Cumulative-----|--------Count of days--------|          (0=Min, 1=Max Stress)         |
                         Time  Temp  Temp  Temp Solar Photop                Evapo    Pot TMIN TMIN TMAX TMAX TMAX RAIN|----Water----|---Nitrogen--|-Phosphorus-|
                         Span   Max   Min  Mean   Rad  [day]    CO2   Rain  Trans     ET   <    <    >    >    >    >   Photo         Photo         Photo
                         days    ?    ?    ? MJ/m2     hr    ppm     mm     mm     mm  0?  2? 30? 32? 34?  0mm  synth Growth  synth Growth  synth Growth
----------------------------------------------------------------------------------------------------------------------------------------------------------------
 Emergence-End Juvenile   189   7.4  -4.6   1.4   9.3  10.69  380.0  307.2  192.5  216.0  135  153    0    0    0   41  0.334  0.441  0.001  0.002  0.000  0.000
 End Juvenil-Floral Init   19  23.2   8.2  15.7  17.9  13.85  380.0   52.0   92.0   67.9    0    0    0    0    0    2  0.593  0.681  0.000  0.000  0.000  0.000
 Floral Init-End Lf Grow   10  25.6  13.2  19.4  19.2  14.26  380.0    0.5   53.8   40.9    0    0    0    0    0    1  0.679  0.753  0.000  0.000  0.000  0.000
 End Lf Grth-Beg Grn Fil    9  25.1  15.1  20.1  16.6  14.46  380.0   49.3   32.1   32.1    0    0    0    0    0    3  0.758  0.839  0.000  0.000  0.000  0.000
 Grain Filling Phase       21  28.6  16.1  22.3  22.6  14.61  380.0    8.9   88.7  106.8    0    0    4    2    1    3  0.898  0.933  0.000  0.000  0.000  0.000
   
 Planting to Harvest      258  12.2  -0.1   6.0  11.8  11.53  380.0  418.2  473.9  491.1  135  153    5    3    2   51  0.414  0.508  0.004  0.006  0.000  0.000
----------------------------------------------------------------------------------------------------------------------------------------------------------------


*Resource Productivity
 Growing season length: 258 days 

 Precipitation during growing season       418.2 mm[rain]
   Dry Matter Productivity                  4.46 kg[DM]/m3[rain]          =   44.6 kg[DM]/ha per mm[rain]
   Yield Productivity                       1.15 kg[grain yield]/m3[rain] =   11.5 kg[yield]/ha per mm[rain]

 Evapotranspiration during growing season  473.9 mm[ET]
   Dry Matter Productivity                  3.94 kg[DM]/m3[ET]            =   39.4 kg[DM]/ha per mm[ET]
   Yield Productivity                       1.01 kg[grain yield]/m3[ET]   =   10.1 kg[yield]/ha per mm[ET]

 Transpiration during growing season       386.5 mm[EP]
   Dry Matter Productivity                  4.83 kg[DM]/m3[EP]            =   48.3 kg[DM]/ha per mm[EP]
   Yield Productivity                       1.24 kg[grain yield]/m3[EP]   =   12.4 kg[yield]/ha per mm[EP]

 N applied during growing season            380. kg[N applied]/ha
   Dry Matter Productivity                  49.1 kg[DM]/kg[N applied]
   Yield Productivity                       12.6 kg[yield]/kg[N applied]

 N uptake during growing season              401 kg[N uptake]/ha
   Dry Matter Productivity                  46.6 kg[DM]/kg[N uptake]
   Yield Productivity                       12.0 kg[yield]/kg[N uptake]

--------------------------------------------------------------------------------------------------------------

                     Wheat YIELD :     4806 kg/ha    [Dry weight] 

**************************************************************************************************************

*DSSAT Cropping System Model Ver. 4.8.0.027 -release  MAR 24, 2023 18:40:39

*RUN   3        : Sim1                      WHAPS048 TEST2023    1
 MODEL          : WHAPS048 - Wheat
 EXPERIMENT     : TEST2023 SN TEST-KBAD
 DATA PATH      : C:\DSSAT48\Seasonal\
 TREATMENT  1   : Sim1                      WHAPS048


 CROP           : Wheat            CULTIVAR : MARIS FUNDIN     ECOTYPE :DFAULT
 STARTING DATE  : OCT 15 1977
 PLANTING DATE  : OCT 15 1977       LANTS/m2 :  1000.0    ROW SPACING :  10.cm
 WEATHER        : CHUN7701
 SOIL           : CORD860001     TEXTURE : SALO  - DEFAULT - DEEP SANDY LOAM
 SOIL INITIAL C : DEPTH:195cm EXTR. H2O:283.5mm  NO3:  0.0kg/ha  NH4:  0.0kg/ha
 WATER BALANCE  : IRRIGATE ON REPORTED DAP
 IRRIGATION     :        0 mm IN     0 APPLICATIONS
 NITROGEN BAL.  : SOIL-N & N-UPTAKE SIMULATION; NO N-FIXATION
 N-FERTILIZER   :      380 kg/ha IN     2 APPLICATIONS
 RESIDUE/MANURE : INITIAL :     0 kg/ha ;       0 kg/ha IN     0 APPLICATIONS
 ENVIRONM. OPT. : DAYL=    0.00  SRAD=    0.00  TMAX=    0.00  TMIN=    0.00
                  RAIN=    0.00  CO2 =    0.00  DEW =    0.00  WIND=    0.00
 SIMULATION OPT : WATER   :Y  NITROGEN:Y  N-FIX:N  PHOSPH :N  PESTS  :N
                  PHOTO   :C  ET      :R  INFIL:S  HYDROL :R  SOM    :G
                  CO2     :D  NSWIT   :1  EVAP :R  SOIL   :2  STEMP  :D
 MANAGEMENT OPT : PLANTING:R  IRRIG   :D  FERT :D  RESIDUE:R  HARVEST:M
                  WEATHER :M  TILLAGE :Y

*SUMMARY OF SOIL AND GENETIC INPUT PARAMETERS

   SOIL LOWER UPPER   SAT  EXTR  INIT   ROOT   BULK     pH    NO3    NH4    ORG
  DEPTH LIMIT LIMIT    SW    SW    SW   DIST   DENS                          C
   cm   cm3/cm3    cm3/cm3    cm3/cm3         g/cm3         ugN/g  ugN/g     %
-------------------------------------------------------------------------------
  0-  5 0.070 0.270 0.390 0.200 0.270   1.00   1.61   7.10   0.00   0.00   0.70
  5- 15 0.070 0.270 0.390 0.200 0.270   1.00   1.61   7.10   0.00   0.00   0.70
 15- 30 0.070 0.250 0.350 0.180 0.250   0.60   1.61   7.10   0.00   0.00   0.58
 30- 45 0.070 0.250 0.350 0.180 0.250   0.60   1.61   7.10   0.00   0.00   0.58
 45- 60 0.070 0.220 0.320 0.150 0.220   0.30   1.61   7.10   0.00   0.00   0.58
 60- 75 0.070 0.220 0.320 0.150 0.220   0.30   1.61   7.10   0.00   0.00   0.58
 75-105 0.070 0.200 0.300 0.130 0.200   0.22   1.61   7.10   0.00   0.00   0.43
105-135 0.070 0.195 0.285 0.125 0.195   0.22   1.62   7.10   0.00   0.00   0.26
135-165 0.070 0.180 0.280 0.110 0.180   0.22   1.62   7.10   0.00   0.00   0.12
165-195 0.070 0.220 0.310 0.150 0.220   0.22   1.62   7.10   0.00   0.00   0.04

TOT-195  13.6  42.0  61.2  28.3  42.0  <--cm   -  kg/ha-->    0.0    0.0 114114
SOIL ALBEDO    : 0.21      EVAPORATION LIMIT : 6.00         MIN. FACTOR  : 1.00
RUNOFF CURVE # :60.00      DRAINAGE RATE     : 0.60         FERT. FACTOR : 1.00

 Wheat            CULTIVAR: IB1015-MARIS FUNDIN       ECOTYPE: DFAULT


*SIMULATED CROP AND SOIL STATUS AT MAIN DEVELOPMENT STAGES

 RUN NO.     3     Sim1                    

        CROP GROWTH     BIOMASS         LEAF   CROP N     STRESS      STRESS                                           
   DATE  AGE STAGE        kg/ha    LAI   NUM  kg/ha  %   H2O  Nitr Phos1 Phos2  RSTG                                   
 ------  --- ----------   -----  -----  ----  ---  ---  ----  ----  ----  ----  ----                                   
 15 OCT    0 Fallow           0   0.00   0.0    0  0.0  0.00  0.00  0.00  0.00     8
 15 OCT    0 Sowing           0   0.00   0.0    0  0.0  0.00  0.00  0.00  0.00     8
 17 OCT    2 Germinate        0   0.00   0.0    0  0.0  0.00  0.00  0.00  0.00     9
 24 OCT    9 Emergence       46   0.04   0.0    2  5.3  0.00  0.00  0.00  0.00     1
 30 APR  197 End Juveni     662   0.68   0.0   27  4.1  0.13  0.00  0.00  0.00     2
 18 MAY  215 End Veg        925   0.76   0.0   30  3.2  0.69  0.00  0.00  0.00     3
 28 MAY  225 End Ear Gr    1059   0.70   0.0   31  2.9  0.70  0.00  0.00  0.00     4
  6 JUN  234 Beg Gr Fil    1178   0.62   0.0   31  2.6  0.67  0.00  0.00  0.00     5
 27 JUN  255 Maturity      1302   0.00   0.0   31  2.4  0.53  0.05  0.00  0.00     6
 28 JUN  256 Maturity      1302   0.00   0.0   31  2.4  0.00  1.00  0.00  0.00     7
 28 JUN  256 Harvest       1302   0.00   0.0   31  2.4  0.00  0.00  0.00  0.00     7


*MAIN GROWTH AND DEVELOPMENT VARIABLES

@     VARIABLE                                         SIMULATED     MEASURED
      --------                                         ---------     --------
      Anthesis day (dap)                                     225          -99
      Physiological maturity day (dap)                       256          -99
      Yield at harvest maturity (kg [dm]/ha)                 240          -99
      Number at maturity (no/m2)                             704          -99
      Unit wt at maturity (g [dm]/unit)                     34.1          -99
      Number at maturity (no/unit)                           0.7          -99
      Tops weight at maturity (kg [dm]/ha)                  1302          -99
      By-product produced (stalk) at maturity (kg[dm]/ha       0          -99
      Leaf area index, maximum                              0.78          -99
      Harvest index at maturity                            0.185          -99
      Grain N at maturity (kg/ha)                              5          -99
      Tops N at maturity (kg/ha)                              31          -99
      Stem N at maturity (kg/ha)                               0          -99
      Grain N at maturity (%)                                1.9          -99
      Tops weight at anthesis (kg [dm]/ha)                     2          -99
      Tops N at anthesis (kg/ha)                              88          -99
      Leaf number per stem at maturity                      0.00          -99
      Emergence day (dap)                                      9          -99


*ENVIRONMENTAL AND STRESS FACTORS

 |-----Development Phase------|--------------------------------------Environment--------------------------------------|-----------------Stress-----------------|
                              |---------------Average--------------|-----Cumulative-----|--------Count of days--------|          (0=Min, 1=Max Stress)         |
                         Time  Temp  Temp  Temp Solar Photop                Evapo    Pot TMIN TMIN TMAX TMAX TMAX RAIN|----Water----|---Nitrogen--|-Phosphorus-|
                         Span   Max   Min  Mean   Rad  [day]    CO2   Rain  Trans     ET   <    <    >    >    >    >   Photo         Photo         Photo
                         days    ?    ?    ? MJ/m2     hr    ppm     mm     mm     mm  0?  2? 30? 32? 34?  0mm  synth Growth  synth Growth  synth Growth
----------------------------------------------------------------------------------------------------------------------------------------------------------------
 Emergence-End Juvenile   188   8.3  -2.4   2.9   2.0  10.69  380.0  272.2   48.5   48.4  114  139    0    0    0   48  0.068  0.127  0.001  0.001  0.000  0.000
 End Juvenil-Floral Init   18  25.6   8.0  16.8   2.0  13.83  380.0    3.0   11.7    7.8    0    0    1    0    0    1  0.538  0.693  0.000  0.000  0.000  0.000
 Floral Init-End Lf Grow   10  26.1  13.8  20.0   2.0  14.24  380.0   21.4    5.9    4.6    0    0    0    0    0    2  0.546  0.698  0.000  0.000  0.000  0.000
 End Lf Grth-Beg Grn Fil    9  25.4  12.4  18.9   2.0  14.44  380.0   15.7    5.4    4.1    0    0    1    1    0    3  0.513  0.676  0.000  0.000  0.000  0.000
 Grain Filling Phase       21  28.4  17.1  22.8   2.0  14.60  380.0  315.7   11.1   10.4    0    0    7    1    0    9  0.385  0.557  0.000  0.000  0.000  0.000
   
 Planting to Harvest      256  13.0   1.4   7.2   2.0  11.53  380.0  648.2   86.9   79.5  114  140    9    2    0   65  0.159  0.239  0.003  0.005  0.000  0.000
----------------------------------------------------------------------------------------------------------------------------------------------------------------


*Resource Productivity
 Growing season length: 256 days 

 Precipitation during growing season       648.2 mm[rain]
   Dry Matter Productivity                  0.20 kg[DM]/m3[rain]          =    2.0 kg[DM]/ha per mm[rain]
   Yield Productivity                       0.04 kg[grain yield]/m3[rain] =    0.4 kg[yield]/ha per mm[rain]

 Evapotranspiration during growing season   86.9 mm[ET]
   Dry Matter Productivity                  1.50 kg[DM]/m3[ET]            =   15.0 kg[DM]/ha per mm[ET]
   Yield Productivity                       0.28 kg[grain yield]/m3[ET]   =    2.8 kg[yield]/ha per mm[ET]

 Transpiration during growing season        23.2 mm[EP]
   Dry Matter Productivity                  5.61 kg[DM]/m3[EP]            =   56.1 kg[DM]/ha per mm[EP]
   Yield Productivity                       1.04 kg[grain yield]/m3[EP]   =   10.4 kg[yield]/ha per mm[EP]

 N applied during growing season            380. kg[N applied]/ha
   Dry Matter Productivity                   3.4 kg[DM]/kg[N applied]
   Yield Productivity                        0.6 kg[yield]/kg[N applied]

 N uptake during growing season               34 kg[N uptake]/ha
   Dry Matter Productivity                  38.3 kg[DM]/kg[N uptake]
   Yield Productivity                        7.1 kg[yield]/kg[N uptake]

--------------------------------------------------------------------------------------------------------------

                     Wheat YIELD :      240 kg/ha    [Dry weight] 

**************************************************************************************************************

*DSSAT Cropping System Model Ver. 4.8.0.027 -release  MAR 24, 2023 18:40:39

*RUN   4        : Sim1                      WHAPS048 TEST2023    1
 MODEL          : WHAPS048 - Wheat
 EXPERIMENT     : TEST2023 SN TEST-KBAD
 DATA PATH      : C:\DSSAT48\Seasonal\
 TREATMENT  1   : Sim1                      WHAPS048


 CROP           : Wheat            CULTIVAR : MARIS FUNDIN     ECOTYPE :DFAULT
 STARTING DATE  : OCT 15 1978
 PLANTING DATE  : OCT 15 1978       LANTS/m2 :  1000.0    ROW SPACING :  10.cm
 WEATHER        : CHUN7801
 SOIL           : CORD860001     TEXTURE : SALO  - DEFAULT - DEEP SANDY LOAM