*SIMULATION OVERVIEW FILE

*DSSAT Cropping System Model Ver. 4.8.0.027 -release  MAR 20, 2023 17:09:20

*RUN   1        : Sim1                      WHAPS048 TEST2023    1
 MODEL          : WHAPS048 - Wheat
 EXPERIMENT     : TEST2023 SN TEST-KBAD
 DATA PATH      : C:\DSSAT48\Seasonal\
 TREATMENT  1   : Sim1                      WHAPS048


 CROP           : Wheat            CULTIVAR : MARIS FUNDIN     ECOTYPE :DFAULT
 STARTING DATE  : OCT 15 1975
 PLANTING DATE  : OCT 15 1975       LANTS/m2 :  1000.0    ROW SPACING :  10.cm
 WEATHER        : JEON7501
 SOIL           : CORD860001     TEXTURE : SALO  - DEFAULT - DEEP SANDY LOAM
 SOIL INITIAL C : DEPTH:195cm EXTR. H2O:283.5mm  NO3:  0.0kg/ha  NH4:  0.0kg/ha
 WATER BALANCE  : IRRIGATE ON REPORTED DAP
 IRRIGATION     :        0 mm IN     0 APPLICATIONS
 NITROGEN BAL.  : SOIL-N & N-UPTAKE SIMULATION; NO N-FIXATION
 N-FERTILIZER   :      380 kg/ha IN     2 APPLICATIONS
 RESIDUE/MANURE : INITIAL :     0 kg/ha ;       0 kg/ha IN     0 APPLICATIONS
 ENVIRONM. OPT. : DAYL=    0.00  SRAD=    0.00  TMAX=    0.00  TMIN=    0.00
                  RAIN=    0.00  CO2 =    0.00  DEW =    0.00  WIND=    0.00
 SIMULATION OPT : WATER   :Y  NITROGEN:Y  N-FIX:N  PHOSPH :N  PESTS  :N
                  PHOTO   :C  ET      :R  INFIL:S  HYDROL :R  SOM    :G
                  CO2     :D  NSWIT   :1  EVAP :R  SOIL   :2  STEMP  :D
 MANAGEMENT OPT : PLANTING:R  IRRIG   :D  FERT :D  RESIDUE:R  HARVEST:M
                  WEATHER :M  TILLAGE :Y

*SUMMARY OF SOIL AND GENETIC INPUT PARAMETERS

   SOIL LOWER UPPER   SAT  EXTR  INIT   ROOT   BULK     pH    NO3    NH4    ORG
  DEPTH LIMIT LIMIT    SW    SW    SW   DIST   DENS                          C
   cm   cm3/cm3    cm3/cm3    cm3/cm3         g/cm3         ugN/g  ugN/g     %
-------------------------------------------------------------------------------
  0-  5 0.070 0.270 0.390 0.200 0.270   1.00   1.61   7.10   0.00   0.00   0.70
  5- 15 0.070 0.270 0.390 0.200 0.270   1.00   1.61   7.10   0.00   0.00   0.70
 15- 30 0.070 0.250 0.350 0.180 0.250   0.60   1.61   7.10   0.00   0.00   0.58
 30- 45 0.070 0.250 0.350 0.180 0.250   0.60   1.61   7.10   0.00   0.00   0.58
 45- 60 0.070 0.220 0.320 0.150 0.220   0.30   1.61   7.10   0.00   0.00   0.58
 60- 75 0.070 0.220 0.320 0.150 0.220   0.30   1.61   7.10   0.00   0.00   0.58
 75-105 0.070 0.200 0.300 0.130 0.200   0.22   1.61   7.10   0.00   0.00   0.43
105-135 0.070 0.195 0.285 0.125 0.195   0.22   1.62   7.10   0.00   0.00   0.26
135-165 0.070 0.180 0.280 0.110 0.180   0.22   1.62   7.10   0.00   0.00   0.12
165-195 0.070 0.220 0.310 0.150 0.220   0.22   1.62   7.10   0.00   0.00   0.04

TOT-195  13.6  42.0  61.2  28.3  42.0  <--cm   -  kg/ha-->    0.0    0.0 114114
SOIL ALBEDO    : 0.21      EVAPORATION LIMIT : 6.00         MIN. FACTOR  : 1.00
RUNOFF CURVE # :60.00      DRAINAGE RATE     : 0.60         FERT. FACTOR : 1.00

 Wheat            CULTIVAR: IB1015-MARIS FUNDIN       ECOTYPE: DFAULT


*SIMULATED CROP AND SOIL STATUS AT MAIN DEVELOPMENT STAGES

 RUN NO.     1     Sim1                    

        CROP GROWTH     BIOMASS         LEAF   CROP N     STRESS      STRESS                                           
   DATE  AGE STAGE        kg/ha    LAI   NUM  kg/ha  %   H2O  Nitr Phos1 Phos2  RSTG                                   
 ------  --- ----------   -----  -----  ----  ---  ---  ----  ----  ----  ----  ----                                   
 15 OCT    0 Fallow           0   0.00   0.0    0  0.0  0.00  0.00  0.00  0.00     8
 15 OCT    0 Sowing           0   0.00   0.0    0  0.0  0.00  0.00  0.00  0.00     8
 17 OCT    2 Germinate        0   0.00   0.0    0  0.0  0.00  0.00  0.00  0.00     9
 23 OCT    8 Emergence       51   0.05   0.0    2  4.5  0.00  0.00  0.00  0.00     1
 11 APR  179 End Juveni    6559   7.36   0.0  161  2.5  0.61  0.00  0.00  0.00     2
  2 MAY  200 End Veg       9596   7.20   0.0  251  2.6  0.77  0.00  0.00  0.00     3
 15 MAY  213 End Ear Gr   12701   6.72   0.0  294  2.3  0.83  0.00  0.00  0.00     4
 25 MAY  223 Beg Gr Fil   14687   5.83   0.0  294  2.0  0.79  0.00  0.00  0.00     5
 16 JUN  245 Maturity     17322   0.02   0.0  294  1.7  0.77  0.05  0.00  0.00     6
 17 JUN  246 Maturity     17322   0.02   0.0  294  1.7  0.54  1.00  0.00  0.00     7
 17 JUN  246 Harvest      17322   0.02   0.0  294  1.7  0.00  0.00  0.00  0.00     7


*MAIN GROWTH AND DEVELOPMENT VARIABLES

@     VARIABLE                                         SIMULATED     MEASURED
      --------                                         ---------     --------
      Anthesis day (dap)                                     213          -99
      Physiological maturity day (dap)                       246          -99
      Yield at harvest maturity (kg [dm]/ha)                4435          -99
      Number at maturity (no/m2)                           12616          -99
      Unit wt at maturity (g [dm]/unit)                     35.2          -99
      Number at maturity (no/unit)                          12.6          -99
      Tops weight at maturity (kg [dm]/ha)                 17322          -99
      By-product produced (stalk) at maturity (kg[dm]/ha       0          -99
      Leaf area index, maximum                              7.50          -99
      Harvest index at maturity                            0.256          -99
      Grain N at maturity (kg/ha)                             92          -99
      Tops N at maturity (kg/ha)                             294          -99
      Stem N at maturity (kg/ha)                               0          -99
      Grain N at maturity (%)                                2.1          -99
      Tops weight at anthesis (kg [dm]/ha)                     2          -99
      Tops N at anthesis (kg/ha)                              88          -99
      Leaf number per stem at maturity                      0.00          -99
      Emergence day (dap)                                      8          -99


*ENVIRONMENTAL AND STRESS FACTORS

 |-----Development Phase------|--------------------------------------Environment--------------------------------------|-----------------Stress-----------------|
                              |---------------Average--------------|-----Cumulative-----|--------Count of days--------|          (0=Min, 1=Max Stress)         |
                         Time  Temp  Temp  Temp Solar Photop                Evapo    Pot TMIN TMIN TMAX TMAX TMAX RAIN|----Water----|---Nitrogen--|-Phosphorus-|
                         Span   Max   Min  Mean   Rad  [day]    CO2   Rain  Trans     ET   <    <    >    >    >    >   Photo         Photo         Photo
                         days    ?    ?    ? MJ/m2     hr    ppm     mm     mm     mm  0?  2? 30? 32? 34?  0mm  synth Growth  synth Growth  synth Growth
----------------------------------------------------------------------------------------------------------------------------------------------------------------
 Emergence-End Juvenile   171  10.0  -0.2   4.9   8.6  10.55  380.0  231.8  116.0  208.2   92  107    0    0    0   52  0.468  0.607  0.001  0.001  0.000  0.000
 End Juvenil-Floral Init   21  20.0   9.1  14.6  13.9  13.16  380.0   91.7   44.4   55.8    0    0    0    0    0    8  0.663  0.776  0.000  0.000  0.000  0.000
 Floral Init-End Lf Grow   13  21.4   8.4  14.9  18.7  13.72  380.0   17.8   52.0   46.7    0    0    0    0    0    1  0.739  0.826  0.000  0.000  0.000  0.000
 End Lf Grth-Beg Grn Fil   10  24.1  11.7  17.9  15.6  14.03  380.0   25.9   41.7   32.2    0    0    0    0    0    5  0.692  0.795  0.000  0.000  0.000  0.000
 Grain Filling Phase       22  26.3  16.1  21.2  14.1  14.31  380.0  108.9   70.5   68.7    0    0    2    0    0   12  0.672  0.782  0.000  0.000  0.000  0.000
   
 Planting to Harvest      246  14.0   3.4   8.7  10.5  11.44  380.0  476.1  341.2  434.7   92  107    2    0    0   78  0.511  0.636  0.004  0.005  0.000  0.000
----------------------------------------------------------------------------------------------------------------------------------------------------------------


*Resource Productivity
 Growing season length: 246 days 

 Precipitation during growing season       476.1 mm[rain]
   Dry Matter Productivity                  3.64 kg[DM]/m3[rain]          =   36.4 kg[DM]/ha per mm[rain]
   Yield Productivity                       0.93 kg[grain yield]/m3[rain] =    9.3 kg[yield]/ha per mm[rain]

 Evapotranspiration during growing season  341.2 mm[ET]
   Dry Matter Productivity                  5.08 kg[DM]/m3[ET]            =   50.8 kg[DM]/ha per mm[ET]
   Yield Productivity                       1.30 kg[grain yield]/m3[ET]   =   13.0 kg[yield]/ha per mm[ET]

 Transpiration during growing season       271.0 mm[EP]
   Dry Matter Productivity                  6.39 kg[DM]/m3[EP]            =   63.9 kg[DM]/ha per mm[EP]
   Yield Productivity                       1.64 kg[grain yield]/m3[EP]   =   16.4 kg[yield]/ha per mm[EP]

 N applied during growing season            380. kg[N applied]/ha
   Dry Matter Productivity                  45.6 kg[DM]/kg[N applied]
   Yield Productivity                       11.7 kg[yield]/kg[N applied]

 N uptake during growing season              372 kg[N uptake]/ha
   Dry Matter Productivity                  46.6 kg[DM]/kg[N uptake]
   Yield Productivity                       11.9 kg[yield]/kg[N uptake]

--------------------------------------------------------------------------------------------------------------

                     Wheat YIELD :     4435 kg/ha    [Dry weight] 

**************************************************************************************************************

*DSSAT Cropping System Model Ver. 4.8.0.027 -release  MAR 20, 2023 17:09:20

*RUN   2        : Sim1                      WHAPS048 TEST2023    1
 MODEL          : WHAPS048 - Wheat
 EXPERIMENT     : TEST2023 SN TEST-KBAD
 DATA PATH      : C:\DSSAT48\Seasonal\
 TREATMENT  1   : Sim1                      WHAPS048


 CROP           : Wheat            CULTIVAR : MARIS FUNDIN     ECOTYPE :DFAULT
 STARTING DATE  : OCT 14 1976
 PLANTING DATE  : OCT 14 1976       LANTS/m2 :  1000.0    ROW SPACING :  10.cm
 WEATHER        : JEON7601
 SOIL           : CORD860001     TEXTURE : SALO  - DEFAULT - DEEP SANDY LOAM
 SOIL INITIAL C : DEPTH:195cm EXTR. H2O:283.5mm  NO3:  0.0kg/ha  NH4:  0.0kg/ha
 WATER BALANCE  : IRRIGATE ON REPORTED DAP
 IRRIGATION     :        0 mm IN     0 APPLICATIONS
 NITROGEN BAL.  : SOIL-N & N-UPTAKE SIMULATION; NO N-FIXATION
 N-FERTILIZER   :      380 kg/ha IN     2 APPLICATIONS
 RESIDUE/MANURE : INITIAL :     0 kg/ha ;       0 kg/ha IN     0 APPLICATIONS
 ENVIRONM. OPT. : DAYL=    0.00  SRAD=    0.00  TMAX=    0.00  TMIN=    0.00
                  RAIN=    0.00  CO2 =    0.00  DEW =    0.00  WIND=    0.00
 SIMULATION OPT : WATER   :Y  NITROGEN:Y  N-FIX:N  PHOSPH :N  PESTS  :N
                  PHOTO   :C  ET      :R  INFIL:S  HYDROL :R  SOM    :G
                  CO2     :D  NSWIT   :1  EVAP :R  SOIL   :2  STEMP  :D
 MANAGEMENT OPT : PLANTING:R  IRRIG   :D  FERT :D  RESIDUE:R  HARVEST:M
                  WEATHER :M  TILLAGE :Y

*SUMMARY OF SOIL AND GENETIC INPUT PARAMETERS

   SOIL LOWER UPPER   SAT  EXTR  INIT   ROOT   BULK     pH    NO3    NH4    ORG
  DEPTH LIMIT LIMIT    SW    SW    SW   DIST   DENS                          C
   cm   cm3/cm3    cm3/cm3    cm3/cm3         g/cm3         ugN/g  ugN/g     %
-------------------------------------------------------------------------------
  0-  5 0.070 0.270 0.390 0.200 0.270   1.00   1.61   7.10   0.00   0.00   0.70
  5- 15 0.070 0.270 0.390 0.200 0.270   1.00   1.61   7.10   0.00   0.00   0.70
 15- 30 0.070 0.250 0.350 0.180 0.250   0.60   1.61   7.10   0.00   0.00   0.58
 30- 45 0.070 0.250 0.350 0.180 0.250   0.60   1.61   7.10   0.00   0.00   0.58
 45- 60 0.070 0.220 0.320 0.150 0.220   0.30   1.61   7.10   0.00   0.00   0.58
 60- 75 0.070 0.220 0.320 0.150 0.220   0.30   1.61   7.10   0.00   0.00   0.58
 75-105 0.070 0.200 0.300 0.130 0.200   0.22   1.61   7.10   0.00   0.00   0.43
105-135 0.070 0.195 0.285 0.125 0.195   0.22   1.62   7.10   0.00   0.00   0.26
135-165 0.070 0.180 0.280 0.110 0.180   0.22   1.62   7.10   0.00   0.00   0.12
165-195 0.070 0.220 0.310 0.150 0.220   0.22   1.62   7.10   0.00   0.00   0.04

TOT-195  13.6  42.0  61.2  28.3  42.0  <--cm   -  kg/ha-->    0.0    0.0 114114
SOIL ALBEDO    : 0.21      EVAPORATION LIMIT : 6.00         MIN. FACTOR  : 1.00
RUNOFF CURVE # :60.00      DRAINAGE RATE     : 0.60         FERT. FACTOR : 1.00

 Wheat            CULTIVAR: IB1015-MARIS FUNDIN       ECOTYPE: DFAULT


*SIMULATED CROP AND SOIL STATUS AT MAIN DEVELOPMENT STAGES

 RUN NO.     2     Sim1                    

        CROP GROWTH     BIOMASS         LEAF   CROP N     STRESS      STRESS                                           
   DATE  AGE STAGE        kg/ha    LAI   NUM  kg/ha  %   H2O  Nitr Phos1 Phos2  RSTG                                   
 ------  --- ----------   -----  -----  ----  ---  ---  ----  ----  ----  ----  ----                                   
 14 OCT    0 Fallow           0   0.00   0.0    0  0.0  0.00  0.00  0.00  0.00     8
 14 OCT    0 Sowing           0   0.00   0.0    0  0.0  0.00  0.00  0.00  0.00     8
 16 OCT    2 Germinate        0   0.00   0.0    0  0.0  0.00  0.00  0.00  0.00     9
 21 OCT    7 Emergence       51   0.05   0.0    2  4.6  0.20  0.01  0.00  0.00     1
 15 APR  183 End Juveni    6728   7.19   0.0  187  2.8  0.53  0.00  0.00  0.00     2
  6 MAY  204 End Veg      10106   7.60   0.0  276  2.7  0.77  0.00  0.00  0.00     3
 17 MAY  215 End Ear Gr   12494   7.10   0.0  301  2.4  0.83  0.00  0.00  0.00     4
 26 MAY  224 Beg Gr Fil   14237   6.22   0.0  301  2.1  0.79  0.00  0.00  0.00     5
 16 JUN  245 Maturity     16844   0.22   0.0  301  1.8  0.82  0.05  0.00  0.00     6
 17 JUN  246 Maturity     16844   0.22   0.0  301  1.8  0.69  1.00  0.00  0.00     7
 17 JUN  246 Harvest      16844   0.22   0.0  301  1.8  0.00  0.00  0.00  0.00     7


*MAIN GROWTH AND DEVELOPMENT VARIABLES

@     VARIABLE                                         SIMULATED     MEASURED
      --------                                         ---------     --------
      Anthesis day (dap)                                     215          -99
      Physiological maturity day (dap)                       246          -99
      Yield at harvest maturity (kg [dm]/ha)                4334          -99
      Number at maturity (no/m2)                           10861          -99
      Unit wt at maturity (g [dm]/unit)                     39.9          -99
      Number at maturity (no/unit)                          10.9          -99
      Tops weight at maturity (kg [dm]/ha)                 16844          -99
      By-product produced (stalk) at maturity (kg[dm]/ha       0          -99
      Leaf area index, maximum                              7.65          -99
      Harvest index at maturity                            0.257          -99
      Grain N at maturity (kg/ha)                             80          -99
      Tops N at maturity (kg/ha)                             301          -99
      Stem N at maturity (kg/ha)                               0          -99
      Grain N at maturity (%)                                1.8          -99
      Tops weight at anthesis (kg [dm]/ha)                     2          -99
      Tops N at anthesis (kg/ha)                              88          -99
      Leaf number per stem at maturity                      0.00          -99
      Emergence day (dap)                                      7          -99


*ENVIRONMENTAL AND STRESS FACTORS

 |-----Development Phase------|--------------------------------------Environment--------------------------------------|-----------------Stress-----------------|
                              |---------------Average--------------|-----Cumulative-----|--------Count of days--------|          (0=Min, 1=Max Stress)         |
                         Time  Temp  Temp  Temp Solar Photop                Evapo    Pot TMIN TMIN TMAX TMAX TMAX RAIN|----Water----|---Nitrogen--|-Phosphorus-|
                         Span   Max   Min  Mean   Rad  [day]    CO2   Rain  Trans     ET   <    <    >    >    >    >   Photo         Photo         Photo
                         days    ?    ?    ? MJ/m2     hr    ppm     mm     mm     mm  0?  2? 30? 32? 34?  0mm  synth Growth  synth Growth  synth Growth
----------------------------------------------------------------------------------------------------------------------------------------------------------------
 Emergence-End Juvenile   176   9.2  -1.6   3.8   8.2  10.58  380.0  218.1  135.5  192.3  104  125    0    0    0   49  0.404  0.534  0.001  0.002  0.000  0.000
 End Juvenil-Floral Init   21  20.2   9.5  14.8  12.7  13.26  380.0  115.8   51.6   51.1    0    0    0    0    0   10  0.656  0.771  0.000  0.000  0.000  0.000
 Floral Init-End Lf Grow   11  24.6  10.9  17.7  15.8  13.78  380.0   21.3   49.6   35.8    0    0    0    0    0    2  0.703  0.802  0.000  0.000  0.000  0.000
 End Lf Grth-Beg Grn Fil    9  24.3  12.9  18.6  15.8  14.04  380.0    6.1   38.3   29.7    0    0    0    0    0    2  0.703  0.802  0.000  0.000  0.000  0.000
 Grain Filling Phase       21  27.3  16.7  22.0  15.2  14.31  380.0   62.0   67.6   71.6    0    0    2    0    0    5  0.732  0.822  0.000  0.000  0.000  0.000
   
 Planting to Harvest      246  13.4   2.4   7.9   9.9  11.42  380.0  429.1  359.6  399.7  104  125    2    0    0   70  0.467  0.586  0.004  0.005  0.000  0.000
----------------------------------------------------------------------------------------------------------------------------------------------------------------


*Resource Productivity
 Growing season length: 246 days 

 Precipitation during growing season       429.1 mm[rain]
   Dry Matter Productivity                  3.93 kg[DM]/m3[rain]          =   39.3 kg[DM]/ha per mm[rain]
   Yield Productivity                       1.01 kg[grain yield]/m3[rain] =   10.1 kg[yield]/ha per mm[rain]

 Evapotranspiration during growing season  359.6 mm[ET]
   Dry Matter Productivity                  4.68 kg[DM]/m3[ET]            =   46.8 kg[DM]/ha per mm[ET]
   Yield Productivity                       1.21 kg[grain yield]/m3[ET]   =   12.1 kg[yield]/ha per mm[ET]

 Transpiration during growing season       283.8 mm[EP]
   Dry Matter Productivity                  5.94 kg[DM]/m3[EP]            =   59.4 kg[DM]/ha per mm[EP]
   Yield Productivity                       1.53 kg[grain yield]/m3[EP]   =   15.3 kg[yield]/ha per mm[EP]

 N applied during growing season            380. kg[N applied]/ha
   Dry Matter Productivity                  44.3 kg[DM]/kg[N applied]
   Yield Productivity                       11.4 kg[yield]/kg[N applied]

 N uptake during growing season              375 kg[N uptake]/ha
   Dry Matter Productivity                  44.9 kg[DM]/kg[N uptake]
   Yield Productivity                       11.6 kg[yield]/kg[N uptake]

--------------------------------------------------------------------------------------------------------------

                     Wheat YIELD :     4334 kg/ha    [Dry weight] 

**************************************************************************************************************

*DSSAT Cropping System Model Ver. 4.8.0.027 -release  MAR 20, 2023 17:09:20

*RUN   3        : Sim1                      WHAPS048 TEST2023    1
 MODEL          : WHAPS048 - Wheat
 EXPERIMENT     : TEST2023 SN TEST-KBAD
 DATA PATH      : C:\DSSAT48\Seasonal\
 TREATMENT  1   : Sim1                      WHAPS048


 CROP           : Wheat            CULTIVAR : MARIS FUNDIN     ECOTYPE :DFAULT
 STARTING DATE  : OCT 15 1977
 PLANTING DATE  : OCT 15 1977       LANTS/m2 :  1000.0    ROW SPACING :  10.cm
 WEATHER        : JEON7701
 SOIL           : CORD860001     TEXTURE : SALO  - DEFAULT - DEEP SANDY LOAM
 SOIL INITIAL C : DEPTH:195cm EXTR. H2O:283.5mm  NO3:  0.0kg/ha  NH4:  0.0kg/ha
 WATER BALANCE  : IRRIGATE ON REPORTED DAP
 IRRIGATION     :        0 mm IN     0 APPLICATIONS
 NITROGEN BAL.  : SOIL-N & N-UPTAKE SIMULATION; NO N-FIXATION
 N-FERTILIZER   :      380 kg/ha IN     2 APPLICATIONS
 RESIDUE/MANURE : INITIAL :     0 kg/ha ;       0 kg/ha IN     0 APPLICATIONS
 ENVIRONM. OPT. : DAYL=    0.00  SRAD=    0.00  TMAX=    0.00  TMIN=    0.00
                  RAIN=    0.00  CO2 =    0.00  DEW =    0.00  WIND=    0.00
 SIMULATION OPT : WATER   :Y  NITROGEN:Y  N-FIX:N  PHOSPH :N  PESTS  :N
                  PHOTO   :C  ET      :R  INFIL:S  HYDROL :R  SOM    :G
                  CO2     :D  NSWIT   :1  EVAP :R  SOIL   :2  STEMP  :D
 MANAGEMENT OPT : PLANTING:R  IRRIG   :D  FERT :D  RESIDUE:R  HARVEST:M
                  WEATHER :M  TILLAGE :Y

*SUMMARY OF SOIL AND GENETIC INPUT PARAMETERS

   SOIL LOWER UPPER   SAT  EXTR  INIT   ROOT   BULK     pH    NO3    NH4    ORG
  DEPTH LIMIT LIMIT    SW    SW    SW   DIST   DENS                          C
   cm   cm3/cm3    cm3/cm3    cm3/cm3         g/cm3         ugN/g  ugN/g     %
-------------------------------------------------------------------------------
  0-  5 0.070 0.270 0.390 0.200 0.270   1.00   1.61   7.10   0.00   0.00   0.70
  5- 15 0.070 0.270 0.390 0.200 0.270   1.00   1.61   7.10   0.00   0.00   0.70
 15- 30 0.070 0.250 0.350 0.180 0.250   0.60   1.61   7.10   0.00   0.00   0.58
 30- 45 0.070 0.250 0.350 0.180 0.250   0.60   1.61   7.10   0.00   0.00   0.58
 45- 60 0.070 0.220 0.320 0.150 0.220   0.30   1.61   7.10   0.00   0.00   0.58
 60- 75 0.070 0.220 0.320 0.150 0.220   0.30   1.61   7.10   0.00   0.00   0.58
 75-105 0.070 0.200 0.300 0.130 0.200   0.22   1.61   7.10   0.00   0.00   0.43
105-135 0.070 0.195 0.285 0.125 0.195   0.22   1.62   7.10   0.00   0.00   0.26
135-165 0.070 0.180 0.280 0.110 0.180   0.22   1.62   7.10   0.00   0.00   0.12
165-195 0.070 0.220 0.310 0.150 0.220   0.22   1.62   7.10   0.00   0.00   0.04

TOT-195  13.6  42.0  61.2  28.3  42.0  <--cm   -  kg/ha-->    0.0    0.0 114114
SOIL ALBEDO    : 0.21      EVAPORATION LIMIT : 6.00         MIN. FACTOR  : 1.00
RUNOFF CURVE # :60.00      DRAINAGE RATE     : 0.60         FERT. FACTOR : 1.00

 Wheat            CULTIVAR: IB1015-MARIS FUNDIN       ECOTYPE: DFAULT


*SIMULATED CROP AND SOIL STATUS AT MAIN DEVELOPMENT STAGES

 RUN NO.     3     Sim1                    

        CROP GROWTH     BIOMASS         LEAF   CROP N     STRESS      STRESS                                           
   DATE  AGE STAGE        kg/ha    LAI   NUM  kg/ha  %   H2O  Nitr Phos1 Phos2  RSTG                                   
 ------  --- ----------   -----  -----  ----  ---  ---  ----  ----  ----  ----  ----                                   
 15 OCT    0 Fallow           0   0.00   0.0    0  0.0  0.00  0.00  0.00  0.00     8
 15 OCT    0 Sowing           0   0.00   0.0    0  0.0  0.00  0.00  0.00  0.00     8
 17 OCT    2 Germinate        0   0.00   0.0    0  0.0  0.00  0.00  0.00  0.00     9
 23 OCT    8 Emergence       55   0.05   0.0    2  4.2  0.17  0.00  0.00  0.00     1
 12 APR  179 End Juveni    6639   6.83   0.0  162  2.4  0.58  0.00  0.00  0.00     2
  2 MAY  199 End Veg      10031   7.40   0.0  248  2.5  0.84  0.00  0.00  0.00     3
 14 MAY  211 End Ear Gr   12495   6.89   0.0  272  2.2  0.88  0.00  0.00  0.00     4
 22 MAY  219 Beg Gr Fil   13407   5.93   0.0  272  2.0  0.97  0.00  0.00  0.00     5
 12 JUN  240 Maturity     14572   0.00   0.0  272  1.9  0.85  0.05  0.00  0.00     6
 13 JUN  241 Maturity     14572   0.00   0.0  272  1.9  0.00  1.00  0.00  0.00     7
 13 JUN  241 Harvest      14572   0.00   0.0  272  1.9  0.00  0.00  0.00  0.00     7


*MAIN GROWTH AND DEVELOPMENT VARIABLES

@     VARIABLE                                         SIMULATED     MEASURED
      --------                                         ---------     --------
      Anthesis day (dap)                                     211          -99
      Physiological maturity day (dap)                       241          -99
      Yield at harvest maturity (kg [dm]/ha)                2212          -99
      Number at maturity (no/m2)                            9709          -99
      Unit wt at maturity (g [dm]/unit)                     22.8          -99
      Number at maturity (no/unit)                           9.7          -99
      Tops weight at maturity (kg [dm]/ha)                 14572          -99
      By-product produced (stalk) at maturity (kg[dm]/ha       0          -99
      Leaf area index, maximum                              7.48          -99
      Harvest index at maturity                            0.152          -99
      Grain N at maturity (kg/ha)                             58          -99
      Tops N at maturity (kg/ha)                             272          -99
      Stem N at maturity (kg/ha)                               0          -99
      Grain N at maturity (%)                                2.6          -99
      Tops weight at anthesis (kg [dm]/ha)                     2          -99
      Tops N at anthesis (kg/ha)                              88          -99
      Leaf number per stem at maturity                      0.00          -99
      Emergence day (dap)                                      8          -99


*ENVIRONMENTAL AND STRESS FACTORS

 |-----Development Phase------|--------------------------------------Environment--------------------------------------|-----------------Stress-----------------|
                              |---------------Average--------------|-----Cumulative-----|--------Count of days--------|          (0=Min, 1=Max Stress)         |
                         Time  Temp  Temp  Temp Solar Photop                Evapo    Pot TMIN TMIN TMAX TMAX TMAX RAIN|----Water----|---Nitrogen--|-Phosphorus-|
                         Span   Max   Min  Mean   Rad  [day]    CO2   Rain  Trans     ET   <    <    >    >    >    >   Photo         Photo         Photo
                         days    ?    ?    ? MJ/m2     hr    ppm     mm     mm     mm  0?  2? 30? 32? 34?  0mm  synth Growth  synth Growth  synth Growth
----------------------------------------------------------------------------------------------------------------------------------------------------------------
 Emergence-End Juvenile   171  10.6  -0.0   5.3   8.7  10.55  380.0  235.0  119.9  217.8   90  117    0    0    0   51  0.450  0.585  0.000  0.001  0.000  0.000
 End Juvenil-Floral Init   20  21.7   8.1  14.9  16.4  13.14  380.0   25.9   58.0   63.3    0    0    1    0    0    5  0.753  0.836  0.000  0.000  0.000  0.000
 Floral Init-End Lf Grow   12  24.9   8.9  16.9  16.8  13.67  380.0    0.7   63.8   41.3    0    0    1    0    0    1  0.799  0.866  0.000  0.000  0.000  0.000
 End Lf Grth-Beg Grn Fil    8  26.9  13.1  20.0  16.2  13.95  380.0    5.2   29.7   28.4    0    0    4    1    0    1  0.961  0.975  0.000  0.000  0.000  0.000
 Grain Filling Phase       21  28.8  15.4  22.1  18.1  14.25  380.0  156.4   35.0   86.4    0    0   11    4    0    5  0.897  0.900  0.000  0.000  0.000  0.000
   
 Planting to Harvest      241  14.9   3.2   9.0  11.0  11.38  380.0  423.2  323.2  462.8   90  117   17    5    0   63  0.532  0.638  0.004  0.005  0.000  0.000
----------------------------------------------------------------------------------------------------------------------------------------------------------------


*Resource Productivity
 Growing season length: 241 days 

 Precipitation during growing season       423.2 mm[rain]
   Dry Matter Productivity                  3.44 kg[DM]/m3[rain]          =   34.4 kg[DM]/ha per mm[rain]
   Yield Productivity                       0.52 kg[grain yield]/m3[rain] =    5.2 kg[yield]/ha per mm[rain]

 Evapotranspiration during growing season  323.2 mm[ET]
   Dry Matter Productivity                  4.51 kg[DM]/m3[ET]            =   45.1 kg[DM]/ha per mm[ET]
   Yield Productivity                       0.68 kg[grain yield]/m3[ET]   =    6.8 kg[yield]/ha per mm[ET]

 Transpiration during growing season       257.2 mm[EP]
   Dry Matter Productivity                  5.66 kg[DM]/m3[EP]            =   56.6 kg[DM]/ha per mm[EP]
   Yield Productivity                       0.86 kg[grain yield]/m3[EP]   =    8.6 kg[yield]/ha per mm[EP]

 N applied during growing season            380. kg[N applied]/ha
   Dry Matter Productivity                  38.3 kg[DM]/kg[N applied]
   Yield Productivity                        5.8 kg[yield]/kg[N applied]

 N uptake during growing season              347 kg[N uptake]/ha
   Dry Matter Productivity                  42.0 kg[DM]/kg[N uptake]
   Yield Productivity                        6.4 kg[yield]/kg[N uptake]

--------------------------------------------------------------------------------------------------------------

                     Wheat YIELD :     2212 kg/ha    [Dry weight] 

**************************************************************************************************************

*DSSAT Cropping System Model Ver. 4.8.0.027 -release  MAR 20, 2023 17:09:20

*RUN   4        : Sim1                      WHAPS048 TEST2023    1
 MODEL          : WHAPS048 - Wheat
 EXPERIMENT     : TEST2023 SN TEST-KBAD
 DATA PATH      : C:\DSSAT48\Seasonal\
 TREATMENT  1   : Sim1                      WHAPS048


 CROP           : Wheat            CULTIVAR : MARIS FUNDIN     ECOTYPE :DFAULT
 STARTING DATE  : OCT 15 1978
 PLANTING DATE  : OCT 15 1978       LANTS/m2 :  1000.0    ROW SPACING :  10.cm
 WEATHER        : JEON7801
 SOIL           : CORD860001     TEXTURE : SALO  - DEFAULT - DEEP SANDY LOAM